file 76681311 1715454136                                        
version 3
run DL-Synchronization-0-20240511-15:33:29-7706
attr configname DL-Synchronization
attr datetime 20240511-15:33:29
attr datetimef 20240511-153329
attr experiment DL-Synchronization
attr inifile omnetpp.ini
attr iterationvars ""
attr iterationvarsd ""
attr iterationvarsf ""
attr measurement ""
attr network UseCase
attr processid 7706
attr repetition 0
attr replication #0
attr resultdir results
attr runnumber 0
attr seedset 0
config image-path ../../inet/images:../../Simu5G-1.2.2/images
config extends timeSynchronization
config **.hasTimeSynchronization true
config **.referenceClock "\"switch5GC.clock\""
config *.switch5GC.clock.oscillator.driftRate 10ppm
config **.oscillator.driftRate uniform(10ppm,100ppm)
config *.switch5GC.gptp.gptpNodeType "\"MASTER_NODE\""
config *.switch5GC.gptp.masterPorts "[\"eth0\",\"eth1\"]"
config *.switch5GC.gptp.slavePort "\"\""
config *.switch*.gptp.masterPorts "[\"eth1\",\"eth2\"]"
config *.switch*.gptp.slavePort "\"eth0\""
config *.NSTT.gptp.slavePort "\"eth1\""
config *.NSTT.gptp.masterPorts "[\"eth0\"]"
config *.NSTT.gptp.TSNPort "\"eth1\""
config *.NSTT.gptp.fiveGPort "\"eth0\""
config *.NSTT.gptp.masterDomains [0]
config *.DSTT.gptp.slavePort "\"eth0\""
config *.DSTT.gptp.masterPorts "[\"eth1\"]"
config *.DSTT.gptp.TSNPort "\"eth1\""
config *.DSTT.gptp.fiveGPort "\"eth0\""
config *.DSTT.gptp.slaveDomains [0]
config *.upf.clock.typename IdealClock
config *.*TT.clock.typename IdealClock
config **.clock.oscillator.typename ConstantDriftOscillator
config *.*TT.gptp.typename Gptp5g
config *.*TT.gptp.fiveGPort "\"eth0\""
config *.visualizer.typename IntegratedMultiCanvasVisualizer
config *.visualizer.numInfoVisualizers 1
config *.visualizer.infoVisualizer[0].modules "\"**.clock\""
config *.visualizer.infoVisualizer[0].placementHint "\"bottom\""
config *.PLC.clock.displayStringTextFormat "\"diff: %d\""
config *.Actuato*.clock.displayStringTextFormat "\"diff: %d\""
config *.Sensor.clock.displayStringTextFormat "\"diff: %d\""
config *.switch*.clock.displayStringTextFormat "\"diff: %d\""
config network UseCase
config sim-time-limit 200s
config **.eth*.bitrate 1Gbps
config **.mobility.typename ""
config *.ue.macCellId 0
config *.ue.masterId 0
config *.ue.nrMacCellId 1
config *.ue.nrMasterId 1
config *.ue.intHostAddress "\"Sensor Actuator DSTT\""
config **.amcType "\"NRAmc\""
config **.targetBler 0.001
config **.blerShift 5
config **.numerologyIndex 1
config **.useTdd true
config **.numBands 200
config *.NSTT.**.translatorType "\"NS_TT\""

vector 0 UseCase.upf.clock timeChanged:vector ETV
attr interpolationmode linear
attr recordingmode vector
attr title "Clock time"
vector 1 UseCase.upf.eth[0].queue queueLength:vector ETV
attr autoWarmupFilter false
attr interpolationmode sample-hold
attr recordingmode vector
attr source "warmup(atomic(constant0(packetPushEnded) + count(packetPushStarted) - count(packetPulled) - count(packetRemoved) - count(packetDropped)))"
attr title "queue length"
attr unit pk
vector 2 UseCase.upf.eth[0].queue queueBitLength:vector ETV
attr autoWarmupFilter false
attr interpolationmode sample-hold
attr recordingmode vector
attr source "warmup(atomic(constant0(packetPushEnded) + sum(packetLength(packetPushStarted)) - sum(packetLength(packetPulled)) - sum(packetLength(packetRemoved)) - sum(packetLength(packetDropped))))"
attr title "queue bit length"
attr unit b
vector 3 UseCase.upf.eth[0].mac transmitting:vector ETV
attr interpolationmode sample-hold
attr recordingmode vector
attr source "count(transmissionStarted) - count(transmissionEnded)"
attr title "transmitting state"
attr type int
vector 4 UseCase.upf.ethIf.macLayer.queue queueLength:vector ETV
attr autoWarmupFilter false
attr interpolationmode sample-hold
attr recordingmode vector
attr source "warmup(atomic(constant0(packetPushEnded) + count(packetPushStarted) - count(packetPulled) - count(packetRemoved) - count(packetDropped)))"
attr title "queue length"
attr unit pk
vector 5 UseCase.upf.ethIf.macLayer.queue queueBitLength:vector ETV
attr autoWarmupFilter false
attr interpolationmode sample-hold
attr recordingmode vector
attr source "warmup(atomic(constant0(packetPushEnded) + sum(packetLength(packetPushStarted)) - sum(packetLength(packetPulled)) - sum(packetLength(packetRemoved)) - sum(packetLength(packetDropped))))"
attr title "queue bit length"
attr unit b
vector 6 UseCase.upf.ethIf.phyLayer.interFrameGapInserter interpacketGap:vector ETV
attr interpolationmode sample-hold
attr recordingmode vector
attr source "count(interpacketGapStarted) - count(interpacketGapEnded)"
attr title "interpacket gap state"
attr type int
vector 7 UseCase.upf.ethIf.phyLayer.transmitter transmitting:vector ETV
attr interpolationmode sample-hold
attr recordingmode vector
attr source "count(transmissionStarted) - count(transmissionEnded)"
attr title "transmitting state"
attr type int
vector 8 UseCase.upf.udp passedUpPk:vector(count) ETV
attr interpolationmode none
attr recordingmode vector(count)
attr source packetSentToUpper
attr title "packets passed up, count"
vector 9 UseCase.upf.udp droppedPkWrongPort:vector(count) ETV
attr interpolationmode none
attr recordingmode vector(count)
attr source packetDropReasonIsNoPortFound(packetDropped)
attr title "packets dropped (wrong port), count"
vector 10 UseCase.upf.udp droppedPkBadChecksum:vector(count) ETV
attr interpolationmode none
attr recordingmode vector(count)
attr source packetDropReasonIsIncorrectlyReceived(packetDropped)
attr title "packets dropped (checksum error), count"
vector 11 UseCase.gNB.pppIf.queue queueLength:vector ETV
attr autoWarmupFilter false
attr interpolationmode sample-hold
attr recordingmode vector
attr source "warmup(atomic(constant0(packetPushEnded) + count(packetPushStarted) - count(packetPulled) - count(packetRemoved) - count(packetDropped)))"
attr title "queue length"
attr unit pk
vector 12 UseCase.gNB.pppIf.queue queueBitLength:vector ETV
attr autoWarmupFilter false
attr interpolationmode sample-hold
attr recordingmode vector
attr source "warmup(atomic(constant0(packetPushEnded) + sum(packetLength(packetPushStarted)) - sum(packetLength(packetPulled)) - sum(packetLength(packetRemoved)) - sum(packetLength(packetDropped))))"
attr title "queue bit length"
attr unit b
vector 13 UseCase.gNB.pppIf.ppp transmissionState:vector ETV
attr interpolationmode sample-hold
attr recordingmode vector
attr source transmissionStateChanged
attr title "tx state"
vector 14 UseCase.gNB.pppMEHostIf.queue queueLength:vector ETV
attr autoWarmupFilter false
attr interpolationmode sample-hold
attr recordingmode vector
attr source "warmup(atomic(constant0(packetPushEnded) + count(packetPushStarted) - count(packetPulled) - count(packetRemoved) - count(packetDropped)))"
attr title "queue length"
attr unit pk
vector 15 UseCase.gNB.pppMEHostIf.queue queueBitLength:vector ETV
attr autoWarmupFilter false
attr interpolationmode sample-hold
attr recordingmode vector
attr source "warmup(atomic(constant0(packetPushEnded) + sum(packetLength(packetPushStarted)) - sum(packetLength(packetPulled)) - sum(packetLength(packetRemoved)) - sum(packetLength(packetDropped))))"
attr title "queue bit length"
attr unit b
vector 16 UseCase.gNB.pppMEHostIf.ppp transmissionState:vector ETV
attr interpolationmode sample-hold
attr recordingmode vector
attr source transmissionStateChanged
attr title "tx state"
vector 17 UseCase.gNB.udp passedUpPk:vector(count) ETV
attr interpolationmode none
attr recordingmode vector(count)
attr source packetSentToUpper
attr title "packets passed up, count"
vector 18 UseCase.gNB.udp droppedPkWrongPort:vector(count) ETV
attr interpolationmode none
attr recordingmode vector(count)
attr source packetDropReasonIsNoPortFound(packetDropped)
attr title "packets dropped (wrong port), count"
vector 19 UseCase.gNB.udp droppedPkBadChecksum:vector(count) ETV
attr interpolationmode none
attr recordingmode vector(count)
attr source packetDropReasonIsIncorrectlyReceived(packetDropped)
attr title "packets dropped (checksum error), count"
vector 20 UseCase.gNB.eth.macLayer.queue queueLength:vector ETV
attr autoWarmupFilter false
attr interpolationmode sample-hold
attr recordingmode vector
attr source "warmup(atomic(constant0(packetPushEnded) + count(packetPushStarted) - count(packetPulled) - count(packetRemoved) - count(packetDropped)))"
attr title "queue length"
attr unit pk
vector 21 UseCase.gNB.eth.macLayer.queue queueBitLength:vector ETV
attr autoWarmupFilter false
attr interpolationmode sample-hold
attr recordingmode vector
attr source "warmup(atomic(constant0(packetPushEnded) + sum(packetLength(packetPushStarted)) - sum(packetLength(packetPulled)) - sum(packetLength(packetRemoved)) - sum(packetLength(packetDropped))))"
attr title "queue bit length"
attr unit b
vector 22 UseCase.gNB.eth.phyLayer.interFrameGapInserter interpacketGap:vector ETV
attr interpolationmode sample-hold
attr recordingmode vector
attr source "count(interpacketGapStarted) - count(interpacketGapEnded)"
attr title "interpacket gap state"
attr type int
vector 23 UseCase.gNB.eth.phyLayer.transmitter transmitting:vector ETV
attr interpolationmode sample-hold
attr recordingmode vector
attr source "count(transmissionStarted) - count(transmissionEnded)"
attr title "transmitting state"
attr type int
vector 24 UseCase.ue.eth[0].queue queueLength:vector ETV
attr autoWarmupFilter false
attr interpolationmode sample-hold
attr recordingmode vector
attr source "warmup(atomic(constant0(packetPushEnded) + count(packetPushStarted) - count(packetPulled) - count(packetRemoved) - count(packetDropped)))"
attr title "queue length"
attr unit pk
vector 25 UseCase.ue.eth[0].queue queueBitLength:vector ETV
attr autoWarmupFilter false
attr interpolationmode sample-hold
attr recordingmode vector
attr source "warmup(atomic(constant0(packetPushEnded) + sum(packetLength(packetPushStarted)) - sum(packetLength(packetPulled)) - sum(packetLength(packetRemoved)) - sum(packetLength(packetDropped))))"
attr title "queue bit length"
attr unit b
vector 26 UseCase.ue.eth[0].mac transmitting:vector ETV
attr interpolationmode sample-hold
attr recordingmode vector
attr source "count(transmissionStarted) - count(transmissionEnded)"
attr title "transmitting state"
attr type int
vector 27 UseCase.ue.udp passedUpPk:vector(count) ETV
attr interpolationmode none
attr recordingmode vector(count)
attr source packetSentToUpper
attr title "packets passed up, count"
vector 28 UseCase.ue.udp droppedPkWrongPort:vector(count) ETV
attr interpolationmode none
attr recordingmode vector(count)
attr source packetDropReasonIsNoPortFound(packetDropped)
attr title "packets dropped (wrong port), count"
vector 29 UseCase.ue.udp droppedPkBadChecksum:vector(count) ETV
attr interpolationmode none
attr recordingmode vector(count)
attr source packetDropReasonIsIncorrectlyReceived(packetDropped)
attr title "packets dropped (checksum error), count"
vector 30 UseCase.DSTT.clock timeChanged:vector ETV
attr interpolationmode linear
attr recordingmode vector
attr title "Clock time"
vector 31 UseCase.DSTT.eth[0].queue queueLength:vector ETV
attr autoWarmupFilter false
attr interpolationmode sample-hold
attr recordingmode vector
attr source "warmup(atomic(constant0(packetPushEnded) + count(packetPushStarted) - count(packetPulled) - count(packetRemoved) - count(packetDropped)))"
attr title "queue length"
attr unit pk
vector 32 UseCase.DSTT.eth[0].queue queueBitLength:vector ETV
attr autoWarmupFilter false
attr interpolationmode sample-hold
attr recordingmode vector
attr source "warmup(atomic(constant0(packetPushEnded) + sum(packetLength(packetPushStarted)) - sum(packetLength(packetPulled)) - sum(packetLength(packetRemoved)) - sum(packetLength(packetDropped))))"
attr title "queue bit length"
attr unit b
vector 33 UseCase.DSTT.eth[0].mac transmitting:vector ETV
attr interpolationmode sample-hold
attr recordingmode vector
attr source "count(transmissionStarted) - count(transmissionEnded)"
attr title "transmitting state"
attr type int
vector 34 UseCase.DSTT.eth[1].queue queueLength:vector ETV
attr autoWarmupFilter false
attr interpolationmode sample-hold
attr recordingmode vector
attr source "warmup(atomic(constant0(packetPushEnded) + count(packetPushStarted) - count(packetPulled) - count(packetRemoved) - count(packetDropped)))"
attr title "queue length"
attr unit pk
vector 35 UseCase.DSTT.eth[1].queue queueBitLength:vector ETV
attr autoWarmupFilter false
attr interpolationmode sample-hold
attr recordingmode vector
attr source "warmup(atomic(constant0(packetPushEnded) + sum(packetLength(packetPushStarted)) - sum(packetLength(packetPulled)) - sum(packetLength(packetRemoved)) - sum(packetLength(packetDropped))))"
attr title "queue bit length"
attr unit b
vector 36 UseCase.DSTT.eth[1].mac transmitting:vector ETV
attr interpolationmode sample-hold
attr recordingmode vector
attr source "count(transmissionStarted) - count(transmissionEnded)"
attr title "transmitting state"
attr type int
vector 37 UseCase.DSTT.udp passedUpPk:vector(count) ETV
attr interpolationmode none
attr recordingmode vector(count)
attr source packetSentToUpper
attr title "packets passed up, count"
vector 38 UseCase.DSTT.udp droppedPkWrongPort:vector(count) ETV
attr interpolationmode none
attr recordingmode vector(count)
attr source packetDropReasonIsNoPortFound(packetDropped)
attr title "packets dropped (wrong port), count"
vector 39 UseCase.DSTT.udp droppedPkBadChecksum:vector(count) ETV
attr interpolationmode none
attr recordingmode vector(count)
attr source packetDropReasonIsIncorrectlyReceived(packetDropped)
attr title "packets dropped (checksum error), count"
vector 40 UseCase.NSTT.clock timeChanged:vector ETV
attr interpolationmode linear
attr recordingmode vector
attr title "Clock time"
vector 41 UseCase.NSTT.eth[0].queue queueLength:vector ETV
attr autoWarmupFilter false
attr interpolationmode sample-hold
attr recordingmode vector
attr source "warmup(atomic(constant0(packetPushEnded) + count(packetPushStarted) - count(packetPulled) - count(packetRemoved) - count(packetDropped)))"
attr title "queue length"
attr unit pk
vector 42 UseCase.NSTT.eth[0].queue queueBitLength:vector ETV
attr autoWarmupFilter false
attr interpolationmode sample-hold
attr recordingmode vector
attr source "warmup(atomic(constant0(packetPushEnded) + sum(packetLength(packetPushStarted)) - sum(packetLength(packetPulled)) - sum(packetLength(packetRemoved)) - sum(packetLength(packetDropped))))"
attr title "queue bit length"
attr unit b
vector 43 UseCase.NSTT.eth[0].mac transmitting:vector ETV
attr interpolationmode sample-hold
attr recordingmode vector
attr source "count(transmissionStarted) - count(transmissionEnded)"
attr title "transmitting state"
attr type int
vector 44 UseCase.NSTT.eth[1].queue queueLength:vector ETV
attr autoWarmupFilter false
attr interpolationmode sample-hold
attr recordingmode vector
attr source "warmup(atomic(constant0(packetPushEnded) + count(packetPushStarted) - count(packetPulled) - count(packetRemoved) - count(packetDropped)))"
attr title "queue length"
attr unit pk
vector 45 UseCase.NSTT.eth[1].queue queueBitLength:vector ETV
attr autoWarmupFilter false
attr interpolationmode sample-hold
attr recordingmode vector
attr source "warmup(atomic(constant0(packetPushEnded) + sum(packetLength(packetPushStarted)) - sum(packetLength(packetPulled)) - sum(packetLength(packetRemoved)) - sum(packetLength(packetDropped))))"
attr title "queue bit length"
attr unit b
vector 46 UseCase.NSTT.eth[1].mac transmitting:vector ETV
attr interpolationmode sample-hold
attr recordingmode vector
attr source "count(transmissionStarted) - count(transmissionEnded)"
attr title "transmitting state"
attr type int
vector 47 UseCase.NSTT.udp passedUpPk:vector(count) ETV
attr interpolationmode none
attr recordingmode vector(count)
attr source packetSentToUpper
attr title "packets passed up, count"
vector 48 UseCase.NSTT.udp droppedPkWrongPort:vector(count) ETV
attr interpolationmode none
attr recordingmode vector(count)
attr source packetDropReasonIsNoPortFound(packetDropped)
attr title "packets dropped (wrong port), count"
vector 49 UseCase.NSTT.udp droppedPkBadChecksum:vector(count) ETV
attr interpolationmode none
attr recordingmode vector(count)
attr source packetDropReasonIsIncorrectlyReceived(packetDropped)
attr title "packets dropped (checksum error), count"
vector 50 UseCase.Actuator.eth[0].macLayer.queue queueLength:vector ETV
attr autoWarmupFilter false
attr interpolationmode sample-hold
attr recordingmode vector
attr source "warmup(atomic(constant0(packetPushEnded) + count(packetPushStarted) - count(packetPulled) - count(packetRemoved) - count(packetDropped)))"
attr title "queue length"
attr unit pk
vector 51 UseCase.Actuator.eth[0].macLayer.queue queueBitLength:vector ETV
attr autoWarmupFilter false
attr interpolationmode sample-hold
attr recordingmode vector
attr source "warmup(atomic(constant0(packetPushEnded) + sum(packetLength(packetPushStarted)) - sum(packetLength(packetPulled)) - sum(packetLength(packetRemoved)) - sum(packetLength(packetDropped))))"
attr title "queue bit length"
attr unit b
vector 52 UseCase.Actuator.eth[0].phyLayer.interFrameGapInserter interpacketGap:vector ETV
attr interpolationmode sample-hold
attr recordingmode vector
attr source "count(interpacketGapStarted) - count(interpacketGapEnded)"
attr title "interpacket gap state"
attr type int
vector 53 UseCase.Actuator.eth[0].phyLayer.transmitter transmitting:vector ETV
attr interpolationmode sample-hold
attr recordingmode vector
attr source "count(transmissionStarted) - count(transmissionEnded)"
attr title "transmitting state"
attr type int
vector 54 UseCase.Actuator.udp passedUpPk:vector(count) ETV
attr interpolationmode none
attr recordingmode vector(count)
attr source packetSentToUpper
attr title "packets passed up, count"
vector 55 UseCase.Actuator.udp droppedPkWrongPort:vector(count) ETV
attr interpolationmode none
attr recordingmode vector(count)
attr source packetDropReasonIsNoPortFound(packetDropped)
attr title "packets dropped (wrong port), count"
vector 56 UseCase.Actuator.udp droppedPkBadChecksum:vector(count) ETV
attr interpolationmode none
attr recordingmode vector(count)
attr source packetDropReasonIsIncorrectlyReceived(packetDropped)
attr title "packets dropped (checksum error), count"
vector 57 UseCase.Actuator.gptp rateRatio:vector ETV
attr interpolationmode sample-hold
attr recordingmode vector
vector 58 UseCase.Actuator.gptp correctionField:vector ETV
attr interpolationmode linear
attr recordingmode vector
vector 59 UseCase.Actuator.gptp localTime:vector ETV
attr "" ""
attr interpolationmode linear
attr recordingmode vector
vector 60 UseCase.Actuator.gptp timeDifference:vector ETV
attr interpolationmode linear
attr recordingmode vector
vector 61 UseCase.switch5GC.gptp rateRatio:vector ETV
attr interpolationmode sample-hold
attr recordingmode vector
vector 62 UseCase.switch5GC.gptp correctionField:vector ETV
attr interpolationmode linear
attr recordingmode vector
vector 63 UseCase.switch5GC.gptp localTime:vector ETV
attr "" ""
attr interpolationmode linear
attr recordingmode vector
vector 64 UseCase.switch5GC.gptp timeDifference:vector ETV
attr interpolationmode linear
attr recordingmode vector
vector 65 UseCase.switch5GC.eth[0].macLayer.queue queueLength:vector ETV
attr autoWarmupFilter false
attr interpolationmode sample-hold
attr recordingmode vector
attr source "warmup(atomic(constant0(packetPushEnded) + count(packetPushStarted) - count(packetPulled) - count(packetRemoved) - count(packetDropped)))"
attr title "queue length"
attr unit pk
vector 66 UseCase.switch5GC.eth[0].macLayer.queue queueBitLength:vector ETV
attr autoWarmupFilter false
attr interpolationmode sample-hold
attr recordingmode vector
attr source "warmup(atomic(constant0(packetPushEnded) + sum(packetLength(packetPushStarted)) - sum(packetLength(packetPulled)) - sum(packetLength(packetRemoved)) - sum(packetLength(packetDropped))))"
attr title "queue bit length"
attr unit b
vector 67 UseCase.switch5GC.eth[0].phyLayer.interFrameGapInserter interpacketGap:vector ETV
attr interpolationmode sample-hold
attr recordingmode vector
attr source "count(interpacketGapStarted) - count(interpacketGapEnded)"
attr title "interpacket gap state"
attr type int
vector 68 UseCase.switch5GC.eth[0].phyLayer.transmitter transmitting:vector ETV
attr interpolationmode sample-hold
attr recordingmode vector
attr source "count(transmissionStarted) - count(transmissionEnded)"
attr title "transmitting state"
attr type int
vector 69 UseCase.switch5GC.eth[1].macLayer.queue queueLength:vector ETV
attr autoWarmupFilter false
attr interpolationmode sample-hold
attr recordingmode vector
attr source "warmup(atomic(constant0(packetPushEnded) + count(packetPushStarted) - count(packetPulled) - count(packetRemoved) - count(packetDropped)))"
attr title "queue length"
attr unit pk
vector 70 UseCase.switch5GC.eth[1].macLayer.queue queueBitLength:vector ETV
attr autoWarmupFilter false
attr interpolationmode sample-hold
attr recordingmode vector
attr source "warmup(atomic(constant0(packetPushEnded) + sum(packetLength(packetPushStarted)) - sum(packetLength(packetPulled)) - sum(packetLength(packetRemoved)) - sum(packetLength(packetDropped))))"
attr title "queue bit length"
attr unit b
vector 71 UseCase.switch5GC.eth[1].phyLayer.interFrameGapInserter interpacketGap:vector ETV
attr interpolationmode sample-hold
attr recordingmode vector
attr source "count(interpacketGapStarted) - count(interpacketGapEnded)"
attr title "interpacket gap state"
attr type int
vector 72 UseCase.switch5GC.eth[1].phyLayer.transmitter transmitting:vector ETV
attr interpolationmode sample-hold
attr recordingmode vector
attr source "count(transmissionStarted) - count(transmissionEnded)"
attr title "transmitting state"
attr type int
vector 73 UseCase.switchTSN.gptp rateRatio:vector ETV
attr interpolationmode sample-hold
attr recordingmode vector
vector 74 UseCase.switchTSN.gptp correctionField:vector ETV
attr interpolationmode linear
attr recordingmode vector
vector 75 UseCase.switchTSN.gptp localTime:vector ETV
attr "" ""
attr interpolationmode linear
attr recordingmode vector
vector 76 UseCase.switchTSN.gptp timeDifference:vector ETV
attr interpolationmode linear
attr recordingmode vector
vector 77 UseCase.switchTSN.eth[0].macLayer.queue queueLength:vector ETV
attr autoWarmupFilter false
attr interpolationmode sample-hold
attr recordingmode vector
attr source "warmup(atomic(constant0(packetPushEnded) + count(packetPushStarted) - count(packetPulled) - count(packetRemoved) - count(packetDropped)))"
attr title "queue length"
attr unit pk
vector 78 UseCase.switchTSN.eth[0].macLayer.queue queueBitLength:vector ETV
attr autoWarmupFilter false
attr interpolationmode sample-hold
attr recordingmode vector
attr source "warmup(atomic(constant0(packetPushEnded) + sum(packetLength(packetPushStarted)) - sum(packetLength(packetPulled)) - sum(packetLength(packetRemoved)) - sum(packetLength(packetDropped))))"
attr title "queue bit length"
attr unit b
vector 79 UseCase.switchTSN.eth[0].phyLayer.interFrameGapInserter interpacketGap:vector ETV
attr interpolationmode sample-hold
attr recordingmode vector
attr source "count(interpacketGapStarted) - count(interpacketGapEnded)"
attr title "interpacket gap state"
attr type int
vector 80 UseCase.switchTSN.eth[0].phyLayer.transmitter transmitting:vector ETV
attr interpolationmode sample-hold
attr recordingmode vector
attr source "count(transmissionStarted) - count(transmissionEnded)"
attr title "transmitting state"
attr type int
vector 81 UseCase.switchTSN.eth[1].macLayer.queue queueLength:vector ETV
attr autoWarmupFilter false
attr interpolationmode sample-hold
attr recordingmode vector
attr source "warmup(atomic(constant0(packetPushEnded) + count(packetPushStarted) - count(packetPulled) - count(packetRemoved) - count(packetDropped)))"
attr title "queue length"
attr unit pk
vector 82 UseCase.switchTSN.eth[1].macLayer.queue queueBitLength:vector ETV
attr autoWarmupFilter false
attr interpolationmode sample-hold
attr recordingmode vector
attr source "warmup(atomic(constant0(packetPushEnded) + sum(packetLength(packetPushStarted)) - sum(packetLength(packetPulled)) - sum(packetLength(packetRemoved)) - sum(packetLength(packetDropped))))"
attr title "queue bit length"
attr unit b
vector 83 UseCase.switchTSN.eth[1].phyLayer.interFrameGapInserter interpacketGap:vector ETV
attr interpolationmode sample-hold
attr recordingmode vector
attr source "count(interpacketGapStarted) - count(interpacketGapEnded)"
attr title "interpacket gap state"
attr type int
vector 84 UseCase.switchTSN.eth[1].phyLayer.transmitter transmitting:vector ETV
attr interpolationmode sample-hold
attr recordingmode vector
attr source "count(transmissionStarted) - count(transmissionEnded)"
attr title "transmitting state"
attr type int
vector 85 UseCase.switchTSN.eth[2].macLayer.queue queueLength:vector ETV
attr autoWarmupFilter false
attr interpolationmode sample-hold
attr recordingmode vector
attr source "warmup(atomic(constant0(packetPushEnded) + count(packetPushStarted) - count(packetPulled) - count(packetRemoved) - count(packetDropped)))"
attr title "queue length"
attr unit pk
vector 86 UseCase.switchTSN.eth[2].macLayer.queue queueBitLength:vector ETV
attr autoWarmupFilter false
attr interpolationmode sample-hold
attr recordingmode vector
attr source "warmup(atomic(constant0(packetPushEnded) + sum(packetLength(packetPushStarted)) - sum(packetLength(packetPulled)) - sum(packetLength(packetRemoved)) - sum(packetLength(packetDropped))))"
attr title "queue bit length"
attr unit b
vector 87 UseCase.switchTSN.eth[2].phyLayer.interFrameGapInserter interpacketGap:vector ETV
attr interpolationmode sample-hold
attr recordingmode vector
attr source "count(interpacketGapStarted) - count(interpacketGapEnded)"
attr title "interpacket gap state"
attr type int
vector 88 UseCase.switchTSN.eth[2].phyLayer.transmitter transmitting:vector ETV
attr interpolationmode sample-hold
attr recordingmode vector
attr source "count(transmissionStarted) - count(transmissionEnded)"
attr title "transmitting state"
attr type int
vector 89 UseCase.PLC.eth[0].macLayer.queue queueLength:vector ETV
attr autoWarmupFilter false
attr interpolationmode sample-hold
attr recordingmode vector
attr source "warmup(atomic(constant0(packetPushEnded) + count(packetPushStarted) - count(packetPulled) - count(packetRemoved) - count(packetDropped)))"
attr title "queue length"
attr unit pk
vector 90 UseCase.PLC.eth[0].macLayer.queue queueBitLength:vector ETV
attr autoWarmupFilter false
attr interpolationmode sample-hold
attr recordingmode vector
attr source "warmup(atomic(constant0(packetPushEnded) + sum(packetLength(packetPushStarted)) - sum(packetLength(packetPulled)) - sum(packetLength(packetRemoved)) - sum(packetLength(packetDropped))))"
attr title "queue bit length"
attr unit b
vector 91 UseCase.PLC.eth[0].phyLayer.interFrameGapInserter interpacketGap:vector ETV
attr interpolationmode sample-hold
attr recordingmode vector
attr source "count(interpacketGapStarted) - count(interpacketGapEnded)"
attr title "interpacket gap state"
attr type int
vector 92 UseCase.PLC.eth[0].phyLayer.transmitter transmitting:vector ETV
attr interpolationmode sample-hold
attr recordingmode vector
attr source "count(transmissionStarted) - count(transmissionEnded)"
attr title "transmitting state"
attr type int
vector 93 UseCase.PLC.udp passedUpPk:vector(count) ETV
attr interpolationmode none
attr recordingmode vector(count)
attr source packetSentToUpper
attr title "packets passed up, count"
vector 94 UseCase.PLC.udp droppedPkWrongPort:vector(count) ETV
attr interpolationmode none
attr recordingmode vector(count)
attr source packetDropReasonIsNoPortFound(packetDropped)
attr title "packets dropped (wrong port), count"
vector 95 UseCase.PLC.udp droppedPkBadChecksum:vector(count) ETV
attr interpolationmode none
attr recordingmode vector(count)
attr source packetDropReasonIsIncorrectlyReceived(packetDropped)
attr title "packets dropped (checksum error), count"
vector 96 UseCase.PLC.gptp rateRatio:vector ETV
attr interpolationmode sample-hold
attr recordingmode vector
vector 97 UseCase.PLC.gptp correctionField:vector ETV
attr interpolationmode linear
attr recordingmode vector
vector 98 UseCase.PLC.gptp localTime:vector ETV
attr "" ""
attr interpolationmode linear
attr recordingmode vector
vector 99 UseCase.PLC.gptp timeDifference:vector ETV
attr interpolationmode linear
attr recordingmode vector
vector 100 UseCase.Sensor.eth[0].macLayer.queue queueLength:vector ETV
attr autoWarmupFilter false
attr interpolationmode sample-hold
attr recordingmode vector
attr source "warmup(atomic(constant0(packetPushEnded) + count(packetPushStarted) - count(packetPulled) - count(packetRemoved) - count(packetDropped)))"
attr title "queue length"
attr unit pk
vector 101 UseCase.Sensor.eth[0].macLayer.queue queueBitLength:vector ETV
attr autoWarmupFilter false
attr interpolationmode sample-hold
attr recordingmode vector
attr source "warmup(atomic(constant0(packetPushEnded) + sum(packetLength(packetPushStarted)) - sum(packetLength(packetPulled)) - sum(packetLength(packetRemoved)) - sum(packetLength(packetDropped))))"
attr title "queue bit length"
attr unit b
vector 102 UseCase.Sensor.eth[0].phyLayer.interFrameGapInserter interpacketGap:vector ETV
attr interpolationmode sample-hold
attr recordingmode vector
attr source "count(interpacketGapStarted) - count(interpacketGapEnded)"
attr title "interpacket gap state"
attr type int
vector 103 UseCase.Sensor.eth[0].phyLayer.transmitter transmitting:vector ETV
attr interpolationmode sample-hold
attr recordingmode vector
attr source "count(transmissionStarted) - count(transmissionEnded)"
attr title "transmitting state"
attr type int
vector 104 UseCase.Sensor.udp passedUpPk:vector(count) ETV
attr interpolationmode none
attr recordingmode vector(count)
attr source packetSentToUpper
attr title "packets passed up, count"
vector 105 UseCase.Sensor.udp droppedPkWrongPort:vector(count) ETV
attr interpolationmode none
attr recordingmode vector(count)
attr source packetDropReasonIsNoPortFound(packetDropped)
attr title "packets dropped (wrong port), count"
vector 106 UseCase.Sensor.udp droppedPkBadChecksum:vector(count) ETV
attr interpolationmode none
attr recordingmode vector(count)
attr source packetDropReasonIsIncorrectlyReceived(packetDropped)
attr title "packets dropped (checksum error), count"
vector 107 UseCase.Sensor.gptp rateRatio:vector ETV
attr interpolationmode sample-hold
attr recordingmode vector
vector 108 UseCase.Sensor.gptp correctionField:vector ETV
attr interpolationmode linear
attr recordingmode vector
vector 109 UseCase.Sensor.gptp localTime:vector ETV
attr "" ""
attr interpolationmode linear
attr recordingmode vector
vector 110 UseCase.Sensor.gptp timeDifference:vector ETV
attr interpolationmode linear
attr recordingmode vector
vector 111 UseCase.ue.cellularNic.phy servingCell:vector ETV
attr recordingmode vector
attr source servingCell
attr title "ID of the serving eNodeB for the UE"
attr unit ""
vector 112 UseCase.ue.cellularNic.nrPhy servingCell:vector ETV
attr recordingmode vector
attr source servingCell
attr title "ID of the serving eNodeB for the UE"
attr unit ""
vector 113 UseCase.DSTT.gptp rateRatio:vector ETV
attr interpolationmode sample-hold
attr recordingmode vector
vector 114 UseCase.DSTT.gptp localTime:vector ETV
attr interpolationmode linear
attr recordingmode vector
vector 115 UseCase.DSTT.gptp timeDifference:vector ETV
attr interpolationmode linear
attr recordingmode vector
vector 116 UseCase.NSTT.gptp rateRatio:vector ETV
attr interpolationmode sample-hold
attr recordingmode vector
vector 117 UseCase.NSTT.gptp localTime:vector ETV
attr interpolationmode linear
attr recordingmode vector
vector 118 UseCase.NSTT.gptp timeDifference:vector ETV
attr interpolationmode linear
attr recordingmode vector
vector 119 UseCase.Actuator.clock timeChanged:vector ETV
attr interpolationmode linear
attr recordingmode vector
attr title "Clock time"
vector 120 UseCase.switch5GC.clock timeChanged:vector ETV
attr interpolationmode linear
attr recordingmode vector
attr title "Clock time"
vector 121 UseCase.switchTSN.clock timeChanged:vector ETV
attr interpolationmode linear
attr recordingmode vector
attr title "Clock time"
vector 122 UseCase.PLC.clock timeChanged:vector ETV
attr interpolationmode linear
attr recordingmode vector
attr title "Clock time"
vector 123 UseCase.Sensor.clock timeChanged:vector ETV
attr interpolationmode linear
attr recordingmode vector
attr title "Clock time"
vector 124 UseCase.NSTT.ethernet encapPk:vector(packetBytes) ETV
attr interpolationmode none
attr recordingmode vector(packetBytes)
attr source encapPk
attr title "packets encapsulated, packetBytes"
vector 125 UseCase.Actuator.ethernet.macHeaderInserter incomingPacketLengths:vector ETV
attr interpolationmode none
attr recordingmode vector
attr source "packetLength(merge(packetPushedIn, packetPulledIn))"
attr title "incoming packet lengths"
attr unit b
vector 126 UseCase.Actuator.ethernet.macHeaderInserter outgoingPacketLengths:vector ETV
attr interpolationmode none
attr recordingmode vector
attr source "packetLength(merge(packetPushedOut, packetPulledOut))"
attr title "outgoing packet lengths"
attr unit b
vector 127 UseCase.Actuator.ethernet.paddingInserter incomingPacketLengths:vector ETV
attr interpolationmode none
attr recordingmode vector
attr source "packetLength(merge(packetPushedIn, packetPulledIn))"
attr title "incoming packet lengths"
attr unit b
vector 128 UseCase.Actuator.ethernet.paddingInserter outgoingPacketLengths:vector ETV
attr interpolationmode none
attr recordingmode vector
attr source "packetLength(merge(packetPushedOut, packetPulledOut))"
attr title "outgoing packet lengths"
attr unit b
vector 129 UseCase.Actuator.ethernet.fcsInserter incomingPacketLengths:vector ETV
attr interpolationmode none
attr recordingmode vector
attr source "packetLength(merge(packetPushedIn, packetPulledIn))"
attr title "incoming packet lengths"
attr unit b
vector 130 UseCase.Actuator.ethernet.fcsInserter outgoingPacketLengths:vector ETV
attr interpolationmode none
attr recordingmode vector
attr source "packetLength(merge(packetPushedOut, packetPulledOut))"
attr title "outgoing packet lengths"
attr unit b
vector 131 UseCase.Actuator.eth[0].macLayer.queue incomingPacketLengths:vector ETV
attr interpolationmode none
attr recordingmode vector
attr source packetLength(packetPushStarted)
attr title "incoming packet lengths"
attr unit b
vector 132 UseCase.switchTSN.ethernet.macHeaderInserter incomingPacketLengths:vector ETV
attr interpolationmode none
attr recordingmode vector
attr source "packetLength(merge(packetPushedIn, packetPulledIn))"
attr title "incoming packet lengths"
attr unit b
vector 133 UseCase.switchTSN.ethernet.macHeaderInserter outgoingPacketLengths:vector ETV
attr interpolationmode none
attr recordingmode vector
attr source "packetLength(merge(packetPushedOut, packetPulledOut))"
attr title "outgoing packet lengths"
attr unit b
vector 134 UseCase.switchTSN.ethernet.paddingInserter incomingPacketLengths:vector ETV
attr interpolationmode none
attr recordingmode vector
attr source "packetLength(merge(packetPushedIn, packetPulledIn))"
attr title "incoming packet lengths"
attr unit b
vector 135 UseCase.switchTSN.ethernet.paddingInserter outgoingPacketLengths:vector ETV
attr interpolationmode none
attr recordingmode vector
attr source "packetLength(merge(packetPushedOut, packetPulledOut))"
attr title "outgoing packet lengths"
attr unit b
vector 136 UseCase.switchTSN.ethernet.fcsInserter incomingPacketLengths:vector ETV
attr interpolationmode none
attr recordingmode vector
attr source "packetLength(merge(packetPushedIn, packetPulledIn))"
attr title "incoming packet lengths"
attr unit b
vector 137 UseCase.switchTSN.ethernet.fcsInserter outgoingPacketLengths:vector ETV
attr interpolationmode none
attr recordingmode vector
attr source "packetLength(merge(packetPushedOut, packetPulledOut))"
attr title "outgoing packet lengths"
attr unit b
vector 138 UseCase.switchTSN.eth[0].macLayer.queue incomingPacketLengths:vector ETV
attr interpolationmode none
attr recordingmode vector
attr source packetLength(packetPushStarted)
attr title "incoming packet lengths"
attr unit b
vector 139 UseCase.PLC.ethernet.macHeaderInserter incomingPacketLengths:vector ETV
attr interpolationmode none
attr recordingmode vector
attr source "packetLength(merge(packetPushedIn, packetPulledIn))"
attr title "incoming packet lengths"
attr unit b
vector 140 UseCase.PLC.ethernet.macHeaderInserter outgoingPacketLengths:vector ETV
attr interpolationmode none
attr recordingmode vector
attr source "packetLength(merge(packetPushedOut, packetPulledOut))"
attr title "outgoing packet lengths"
attr unit b
vector 141 UseCase.PLC.ethernet.paddingInserter incomingPacketLengths:vector ETV
attr interpolationmode none
attr recordingmode vector
attr source "packetLength(merge(packetPushedIn, packetPulledIn))"
attr title "incoming packet lengths"
attr unit b
vector 142 UseCase.PLC.ethernet.paddingInserter outgoingPacketLengths:vector ETV
attr interpolationmode none
attr recordingmode vector
attr source "packetLength(merge(packetPushedOut, packetPulledOut))"
attr title "outgoing packet lengths"
attr unit b
vector 143 UseCase.PLC.ethernet.fcsInserter incomingPacketLengths:vector ETV
attr interpolationmode none
attr recordingmode vector
attr source "packetLength(merge(packetPushedIn, packetPulledIn))"
attr title "incoming packet lengths"
attr unit b
vector 144 UseCase.PLC.ethernet.fcsInserter outgoingPacketLengths:vector ETV
attr interpolationmode none
attr recordingmode vector
attr source "packetLength(merge(packetPushedOut, packetPulledOut))"
attr title "outgoing packet lengths"
attr unit b
vector 145 UseCase.PLC.eth[0].macLayer.queue incomingPacketLengths:vector ETV
attr interpolationmode none
attr recordingmode vector
attr source packetLength(packetPushStarted)
attr title "incoming packet lengths"
attr unit b
vector 146 UseCase.Sensor.ethernet.macHeaderInserter incomingPacketLengths:vector ETV
attr interpolationmode none
attr recordingmode vector
attr source "packetLength(merge(packetPushedIn, packetPulledIn))"
attr title "incoming packet lengths"
attr unit b
vector 147 UseCase.Sensor.ethernet.macHeaderInserter outgoingPacketLengths:vector ETV
attr interpolationmode none
attr recordingmode vector
attr source "packetLength(merge(packetPushedOut, packetPulledOut))"
attr title "outgoing packet lengths"
attr unit b
vector 148 UseCase.Sensor.ethernet.paddingInserter incomingPacketLengths:vector ETV
attr interpolationmode none
attr recordingmode vector
attr source "packetLength(merge(packetPushedIn, packetPulledIn))"
attr title "incoming packet lengths"
attr unit b
vector 149 UseCase.Sensor.ethernet.paddingInserter outgoingPacketLengths:vector ETV
attr interpolationmode none
attr recordingmode vector
attr source "packetLength(merge(packetPushedOut, packetPulledOut))"
attr title "outgoing packet lengths"
attr unit b
vector 150 UseCase.Sensor.ethernet.fcsInserter incomingPacketLengths:vector ETV
attr interpolationmode none
attr recordingmode vector
attr source "packetLength(merge(packetPushedIn, packetPulledIn))"
attr title "incoming packet lengths"
attr unit b
vector 151 UseCase.Sensor.ethernet.fcsInserter outgoingPacketLengths:vector ETV
attr interpolationmode none
attr recordingmode vector
attr source "packetLength(merge(packetPushedOut, packetPulledOut))"
attr title "outgoing packet lengths"
attr unit b
vector 152 UseCase.Sensor.eth[0].macLayer.queue incomingPacketLengths:vector ETV
attr interpolationmode none
attr recordingmode vector
attr source packetLength(packetPushStarted)
attr title "incoming packet lengths"
attr unit b
vector 153 UseCase.NSTT.eth[1].queue incomingPacketLengths:vector ETV
attr interpolationmode none
attr recordingmode vector
attr source packetLength(packetPushStarted)
attr title "incoming packet lengths"
attr unit b
vector 154 UseCase.NSTT.eth[1].queue queueingTime:vector ETV
attr interpolationmode none
attr recordingmode vector
attr source queueingTime(packetPulled)
attr title "queueing times"
attr unit s
vector 155 UseCase.NSTT.eth[1].queue outgoingPacketLengths:vector ETV
attr interpolationmode none
attr recordingmode vector
attr source packetLength(packetPulled)
attr title "outgoing packet lengths"
attr unit b
vector 156 UseCase.NSTT.eth[1].mac packetReceivedFromUpper:vector(packetBytes) ETV
attr interpolationmode none
attr recordingmode vector(packetBytes)
attr source packetReceivedFromUpper
attr title "packet bytes from higher layer, packetBytes"
vector 157 UseCase.Actuator.eth[0].macLayer.queue queueingTime:vector ETV
attr interpolationmode none
attr recordingmode vector
attr source queueingTime(packetPulled)
attr title "queueing times"
attr unit s
vector 158 UseCase.Actuator.eth[0].macLayer.queue outgoingPacketLengths:vector ETV
attr interpolationmode none
attr recordingmode vector
attr source packetLength(packetPulled)
attr title "outgoing packet lengths"
attr unit b
vector 159 UseCase.Actuator.eth[0].macLayer.server incomingPacketLengths:vector ETV
attr interpolationmode none
attr recordingmode vector
attr source packetLength(packetPulled)
attr title "incoming packet lengths"
attr unit b
vector 160 UseCase.Actuator.eth[0].macLayer.server outgoingPacketLengths:vector ETV
attr interpolationmode none
attr recordingmode vector
attr source packetLength(packetPushed)
attr title "outgoing packet lengths"
attr unit b
vector 161 UseCase.Actuator.eth[0].macLayer.outboundEmitter incomingPacketLengths:vector ETV
attr interpolationmode none
attr recordingmode vector
attr source "packetLength(merge(packetPushedIn, packetPulledIn))"
attr title "incoming packet lengths"
attr unit b
vector 162 UseCase.Actuator.eth[0].macLayer.outboundEmitter outgoingPacketLengths:vector ETV
attr interpolationmode none
attr recordingmode vector
attr source "packetLength(merge(packetPushedOut, packetPulledOut))"
attr title "outgoing packet lengths"
attr unit b
vector 163 UseCase.Actuator.eth[0].phyLayer.phyHeaderInserter incomingPacketLengths:vector ETV
attr interpolationmode none
attr recordingmode vector
attr source "packetLength(merge(packetPushedIn, packetPulledIn))"
attr title "incoming packet lengths"
attr unit b
vector 164 UseCase.Actuator.eth[0].phyLayer.phyHeaderInserter outgoingPacketLengths:vector ETV
attr interpolationmode none
attr recordingmode vector
attr source "packetLength(merge(packetPushedOut, packetPulledOut))"
attr title "outgoing packet lengths"
attr unit b
vector 165 UseCase.Actuator.eth[0].phyLayer.outboundEmitter incomingPacketLengths:vector ETV
attr interpolationmode none
attr recordingmode vector
attr source "packetLength(merge(packetPushedIn, packetPulledIn))"
attr title "incoming packet lengths"
attr unit b
vector 166 UseCase.Actuator.eth[0].phyLayer.outboundEmitter outgoingPacketLengths:vector ETV
attr interpolationmode none
attr recordingmode vector
attr source "packetLength(merge(packetPushedOut, packetPulledOut))"
attr title "outgoing packet lengths"
attr unit b
vector 167 UseCase.switchTSN.eth[0].macLayer.queue queueingTime:vector ETV
attr interpolationmode none
attr recordingmode vector
attr source queueingTime(packetPulled)
attr title "queueing times"
attr unit s
vector 168 UseCase.switchTSN.eth[0].macLayer.queue outgoingPacketLengths:vector ETV
attr interpolationmode none
attr recordingmode vector
attr source packetLength(packetPulled)
attr title "outgoing packet lengths"
attr unit b
vector 169 UseCase.switchTSN.eth[0].macLayer.server incomingPacketLengths:vector ETV
attr interpolationmode none
attr recordingmode vector
attr source packetLength(packetPulled)
attr title "incoming packet lengths"
attr unit b
vector 170 UseCase.switchTSN.eth[0].macLayer.server outgoingPacketLengths:vector ETV
attr interpolationmode none
attr recordingmode vector
attr source packetLength(packetPushed)
attr title "outgoing packet lengths"
attr unit b
vector 171 UseCase.switchTSN.eth[0].macLayer.outboundEmitter incomingPacketLengths:vector ETV
attr interpolationmode none
attr recordingmode vector
attr source "packetLength(merge(packetPushedIn, packetPulledIn))"
attr title "incoming packet lengths"
attr unit b
vector 172 UseCase.switchTSN.eth[0].macLayer.outboundEmitter outgoingPacketLengths:vector ETV
attr interpolationmode none
attr recordingmode vector
attr source "packetLength(merge(packetPushedOut, packetPulledOut))"
attr title "outgoing packet lengths"
attr unit b
vector 173 UseCase.switchTSN.eth[0].phyLayer.phyHeaderInserter incomingPacketLengths:vector ETV
attr interpolationmode none
attr recordingmode vector
attr source "packetLength(merge(packetPushedIn, packetPulledIn))"
attr title "incoming packet lengths"
attr unit b
vector 174 UseCase.switchTSN.eth[0].phyLayer.phyHeaderInserter outgoingPacketLengths:vector ETV
attr interpolationmode none
attr recordingmode vector
attr source "packetLength(merge(packetPushedOut, packetPulledOut))"
attr title "outgoing packet lengths"
attr unit b
vector 175 UseCase.switchTSN.eth[0].phyLayer.outboundEmitter incomingPacketLengths:vector ETV
attr interpolationmode none
attr recordingmode vector
attr source "packetLength(merge(packetPushedIn, packetPulledIn))"
attr title "incoming packet lengths"
attr unit b
vector 176 UseCase.switchTSN.eth[0].phyLayer.outboundEmitter outgoingPacketLengths:vector ETV
attr interpolationmode none
attr recordingmode vector
attr source "packetLength(merge(packetPushedOut, packetPulledOut))"
attr title "outgoing packet lengths"
attr unit b
vector 177 UseCase.PLC.eth[0].macLayer.queue queueingTime:vector ETV
attr interpolationmode none
attr recordingmode vector
attr source queueingTime(packetPulled)
attr title "queueing times"
attr unit s
vector 178 UseCase.PLC.eth[0].macLayer.queue outgoingPacketLengths:vector ETV
attr interpolationmode none
attr recordingmode vector
attr source packetLength(packetPulled)
attr title "outgoing packet lengths"
attr unit b
vector 179 UseCase.PLC.eth[0].macLayer.server incomingPacketLengths:vector ETV
attr interpolationmode none
attr recordingmode vector
attr source packetLength(packetPulled)
attr title "incoming packet lengths"
attr unit b
vector 180 UseCase.PLC.eth[0].macLayer.server outgoingPacketLengths:vector ETV
attr interpolationmode none
attr recordingmode vector
attr source packetLength(packetPushed)
attr title "outgoing packet lengths"
attr unit b
vector 181 UseCase.PLC.eth[0].macLayer.outboundEmitter incomingPacketLengths:vector ETV
attr interpolationmode none
attr recordingmode vector
attr source "packetLength(merge(packetPushedIn, packetPulledIn))"
attr title "incoming packet lengths"
attr unit b
vector 182 UseCase.PLC.eth[0].macLayer.outboundEmitter outgoingPacketLengths:vector ETV
attr interpolationmode none
attr recordingmode vector
attr source "packetLength(merge(packetPushedOut, packetPulledOut))"
attr title "outgoing packet lengths"
attr unit b
vector 183 UseCase.PLC.eth[0].phyLayer.phyHeaderInserter incomingPacketLengths:vector ETV
attr interpolationmode none
attr recordingmode vector
attr source "packetLength(merge(packetPushedIn, packetPulledIn))"
attr title "incoming packet lengths"
attr unit b
vector 184 UseCase.PLC.eth[0].phyLayer.phyHeaderInserter outgoingPacketLengths:vector ETV
attr interpolationmode none
attr recordingmode vector
attr source "packetLength(merge(packetPushedOut, packetPulledOut))"
attr title "outgoing packet lengths"
attr unit b
vector 185 UseCase.PLC.eth[0].phyLayer.outboundEmitter incomingPacketLengths:vector ETV
attr interpolationmode none
attr recordingmode vector
attr source "packetLength(merge(packetPushedIn, packetPulledIn))"
attr title "incoming packet lengths"
attr unit b
vector 186 UseCase.PLC.eth[0].phyLayer.outboundEmitter outgoingPacketLengths:vector ETV
attr interpolationmode none
attr recordingmode vector
attr source "packetLength(merge(packetPushedOut, packetPulledOut))"
attr title "outgoing packet lengths"
attr unit b
vector 187 UseCase.Sensor.eth[0].macLayer.queue queueingTime:vector ETV
attr interpolationmode none
attr recordingmode vector
attr source queueingTime(packetPulled)
attr title "queueing times"
attr unit s
vector 188 UseCase.Sensor.eth[0].macLayer.queue outgoingPacketLengths:vector ETV
attr interpolationmode none
attr recordingmode vector
attr source packetLength(packetPulled)
attr title "outgoing packet lengths"
attr unit b
vector 189 UseCase.Sensor.eth[0].macLayer.server incomingPacketLengths:vector ETV
attr interpolationmode none
attr recordingmode vector
attr source packetLength(packetPulled)
attr title "incoming packet lengths"
attr unit b
vector 190 UseCase.Sensor.eth[0].macLayer.server outgoingPacketLengths:vector ETV
attr interpolationmode none
attr recordingmode vector
attr source packetLength(packetPushed)
attr title "outgoing packet lengths"
attr unit b
vector 191 UseCase.Sensor.eth[0].macLayer.outboundEmitter incomingPacketLengths:vector ETV
attr interpolationmode none
attr recordingmode vector
attr source "packetLength(merge(packetPushedIn, packetPulledIn))"
attr title "incoming packet lengths"
attr unit b
vector 192 UseCase.Sensor.eth[0].macLayer.outboundEmitter outgoingPacketLengths:vector ETV
attr interpolationmode none
attr recordingmode vector
attr source "packetLength(merge(packetPushedOut, packetPulledOut))"
attr title "outgoing packet lengths"
attr unit b
vector 193 UseCase.Sensor.eth[0].phyLayer.phyHeaderInserter incomingPacketLengths:vector ETV
attr interpolationmode none
attr recordingmode vector
attr source "packetLength(merge(packetPushedIn, packetPulledIn))"
attr title "incoming packet lengths"
attr unit b
vector 194 UseCase.Sensor.eth[0].phyLayer.phyHeaderInserter outgoingPacketLengths:vector ETV
attr interpolationmode none
attr recordingmode vector
attr source "packetLength(merge(packetPushedOut, packetPulledOut))"
attr title "outgoing packet lengths"
attr unit b
vector 195 UseCase.Sensor.eth[0].phyLayer.outboundEmitter incomingPacketLengths:vector ETV
attr interpolationmode none
attr recordingmode vector
attr source "packetLength(merge(packetPushedIn, packetPulledIn))"
attr title "incoming packet lengths"
attr unit b
vector 196 UseCase.Sensor.eth[0].phyLayer.outboundEmitter outgoingPacketLengths:vector ETV
attr interpolationmode none
attr recordingmode vector
attr source "packetLength(merge(packetPushedOut, packetPulledOut))"
attr title "outgoing packet lengths"
attr unit b
vector 197 UseCase.NSTT.eth[1].mac txPk:vector(packetBytes) ETV
attr interpolationmode none
attr recordingmode vector(packetBytes)
attr source packetSentToLower
attr title "packets transmitted, packetBytes"
vector 198 UseCase.Actuator.eth[0].phyLayer.transmitter transmissionTime:vector ETV
attr interpolationmode none
attr recordingmode vector
attr source packetDuration(transmissionEnded)
attr title "transmission time"
attr unit s
vector 199 UseCase.switchTSN.eth[0].phyLayer.transmitter transmissionTime:vector ETV
attr interpolationmode none
attr recordingmode vector
attr source packetDuration(transmissionEnded)
attr title "transmission time"
attr unit s
vector 200 UseCase.PLC.eth[0].phyLayer.transmitter transmissionTime:vector ETV
attr interpolationmode none
attr recordingmode vector
attr source packetDuration(transmissionEnded)
attr title "transmission time"
attr unit s
vector 201 UseCase.Sensor.eth[0].phyLayer.transmitter transmissionTime:vector ETV
attr interpolationmode none
attr recordingmode vector
attr source packetDuration(transmissionEnded)
attr title "transmission time"
attr unit s
vector 202 UseCase.switch5GC.eth[1].phyLayer.receiver receptionTime:vector ETV
attr interpolationmode none
attr recordingmode vector
attr source packetDuration(receptionEnded)
attr title "reception time"
attr unit s
vector 203 UseCase.switch5GC.eth[1].phyLayer.inboundEmitter incomingPacketLengths:vector ETV
attr interpolationmode none
attr recordingmode vector
attr source "packetLength(merge(packetPushedIn, packetPulledIn))"
attr title "incoming packet lengths"
attr unit b
vector 204 UseCase.switch5GC.eth[1].phyLayer.inboundEmitter outgoingPacketLengths:vector ETV
attr interpolationmode none
attr recordingmode vector
attr source "packetLength(merge(packetPushedOut, packetPulledOut))"
attr title "outgoing packet lengths"
attr unit b
vector 205 UseCase.switch5GC.eth[1].phyLayer.phyHeaderChecker incomingPacketLengths:vector ETV
attr interpolationmode none
attr recordingmode vector
attr source "packetLength(merge(packetPushedIn, packetPulledIn))"
attr title "incoming packet lengths"
attr unit b
vector 206 UseCase.switch5GC.eth[1].phyLayer.phyHeaderChecker outgoingPacketLengths:vector ETV
attr interpolationmode none
attr recordingmode vector
attr source "packetLength(merge(packetPushedOut, packetPulledOut))"
attr title "outgoing packet lengths"
attr unit b
vector 207 UseCase.switch5GC.eth[1].macLayer.inboundEmitter incomingPacketLengths:vector ETV
attr interpolationmode none
attr recordingmode vector
attr source "packetLength(merge(packetPushedIn, packetPulledIn))"
attr title "incoming packet lengths"
attr unit b
vector 208 UseCase.switch5GC.eth[1].macLayer.inboundEmitter outgoingPacketLengths:vector ETV
attr interpolationmode none
attr recordingmode vector
attr source "packetLength(merge(packetPushedOut, packetPulledOut))"
attr title "outgoing packet lengths"
attr unit b
vector 209 UseCase.switch5GC.eth[1].macLayer.fcsChecker incomingPacketLengths:vector ETV
attr interpolationmode none
attr recordingmode vector
attr source "packetLength(merge(packetPushedIn, packetPulledIn))"
attr title "incoming packet lengths"
attr unit b
vector 210 UseCase.switch5GC.eth[1].macLayer.fcsChecker outgoingPacketLengths:vector ETV
attr interpolationmode none
attr recordingmode vector
attr source "packetLength(merge(packetPushedOut, packetPulledOut))"
attr title "outgoing packet lengths"
attr unit b
vector 211 UseCase.switch5GC.ethernet.fcsChecker incomingPacketLengths:vector ETV
attr interpolationmode none
attr recordingmode vector
attr source "packetLength(merge(packetPushedIn, packetPulledIn))"
attr title "incoming packet lengths"
attr unit b
vector 212 UseCase.switch5GC.ethernet.fcsChecker outgoingPacketLengths:vector ETV
attr interpolationmode none
attr recordingmode vector
attr source "packetLength(merge(packetPushedOut, packetPulledOut))"
attr title "outgoing packet lengths"
attr unit b
vector 213 UseCase.switch5GC.ethernet.macHeaderChecker incomingPacketLengths:vector ETV
attr interpolationmode none
attr recordingmode vector
attr source "packetLength(merge(packetPushedIn, packetPulledIn))"
attr title "incoming packet lengths"
attr unit b
vector 214 UseCase.switch5GC.ethernet.macHeaderChecker outgoingPacketLengths:vector ETV
attr interpolationmode none
attr recordingmode vector
attr source "packetLength(merge(packetPushedOut, packetPulledOut))"
attr title "outgoing packet lengths"
attr unit b
vector 215 UseCase.switch5GC.bridging.interfaceRelay.learner incomingPacketLengths:vector ETV
attr interpolationmode none
attr recordingmode vector
attr source "packetLength(merge(packetPushedIn, packetPulledIn))"
attr title "incoming packet lengths"
attr unit b
vector 216 UseCase.switch5GC.bridging.interfaceRelay.learner outgoingPacketLengths:vector ETV
attr interpolationmode none
attr recordingmode vector
attr source "packetLength(merge(packetPushedOut, packetPulledOut))"
attr title "outgoing packet lengths"
attr unit b
vector 217 UseCase.switchTSN.eth[2].phyLayer.receiver receptionTime:vector ETV
attr interpolationmode none
attr recordingmode vector
attr source packetDuration(receptionEnded)
attr title "reception time"
attr unit s
vector 218 UseCase.switchTSN.eth[2].phyLayer.inboundEmitter incomingPacketLengths:vector ETV
attr interpolationmode none
attr recordingmode vector
attr source "packetLength(merge(packetPushedIn, packetPulledIn))"
attr title "incoming packet lengths"
attr unit b
vector 219 UseCase.switchTSN.eth[2].phyLayer.inboundEmitter outgoingPacketLengths:vector ETV
attr interpolationmode none
attr recordingmode vector
attr source "packetLength(merge(packetPushedOut, packetPulledOut))"
attr title "outgoing packet lengths"
attr unit b
vector 220 UseCase.switchTSN.eth[2].phyLayer.phyHeaderChecker incomingPacketLengths:vector ETV
attr interpolationmode none
attr recordingmode vector
attr source "packetLength(merge(packetPushedIn, packetPulledIn))"
attr title "incoming packet lengths"
attr unit b
vector 221 UseCase.switchTSN.eth[2].phyLayer.phyHeaderChecker outgoingPacketLengths:vector ETV
attr interpolationmode none
attr recordingmode vector
attr source "packetLength(merge(packetPushedOut, packetPulledOut))"
attr title "outgoing packet lengths"
attr unit b
vector 222 UseCase.switchTSN.eth[2].macLayer.inboundEmitter incomingPacketLengths:vector ETV
attr interpolationmode none
attr recordingmode vector
attr source "packetLength(merge(packetPushedIn, packetPulledIn))"
attr title "incoming packet lengths"
attr unit b
vector 223 UseCase.switchTSN.eth[2].macLayer.inboundEmitter outgoingPacketLengths:vector ETV
attr interpolationmode none
attr recordingmode vector
attr source "packetLength(merge(packetPushedOut, packetPulledOut))"
attr title "outgoing packet lengths"
attr unit b
vector 224 UseCase.switchTSN.eth[2].macLayer.fcsChecker incomingPacketLengths:vector ETV
attr interpolationmode none
attr recordingmode vector
attr source "packetLength(merge(packetPushedIn, packetPulledIn))"
attr title "incoming packet lengths"
attr unit b
vector 225 UseCase.switchTSN.eth[2].macLayer.fcsChecker outgoingPacketLengths:vector ETV
attr interpolationmode none
attr recordingmode vector
attr source "packetLength(merge(packetPushedOut, packetPulledOut))"
attr title "outgoing packet lengths"
attr unit b
vector 226 UseCase.switchTSN.ethernet.fcsChecker incomingPacketLengths:vector ETV
attr interpolationmode none
attr recordingmode vector
attr source "packetLength(merge(packetPushedIn, packetPulledIn))"
attr title "incoming packet lengths"
attr unit b
vector 227 UseCase.switchTSN.ethernet.fcsChecker outgoingPacketLengths:vector ETV
attr interpolationmode none
attr recordingmode vector
attr source "packetLength(merge(packetPushedOut, packetPulledOut))"
attr title "outgoing packet lengths"
attr unit b
vector 228 UseCase.switchTSN.ethernet.macHeaderChecker incomingPacketLengths:vector ETV
attr interpolationmode none
attr recordingmode vector
attr source "packetLength(merge(packetPushedIn, packetPulledIn))"
attr title "incoming packet lengths"
attr unit b
vector 229 UseCase.switchTSN.ethernet.macHeaderChecker outgoingPacketLengths:vector ETV
attr interpolationmode none
attr recordingmode vector
attr source "packetLength(merge(packetPushedOut, packetPulledOut))"
attr title "outgoing packet lengths"
attr unit b
vector 230 UseCase.switchTSN.bridging.interfaceRelay.learner incomingPacketLengths:vector ETV
attr interpolationmode none
attr recordingmode vector
attr source "packetLength(merge(packetPushedIn, packetPulledIn))"
attr title "incoming packet lengths"
attr unit b
vector 231 UseCase.switchTSN.bridging.interfaceRelay.learner outgoingPacketLengths:vector ETV
attr interpolationmode none
attr recordingmode vector
attr source "packetLength(merge(packetPushedOut, packetPulledOut))"
attr title "outgoing packet lengths"
attr unit b
vector 232 UseCase.DSTT.eth[1].mac rxPkOk:vector(packetBytes) ETV
attr interpolationmode none
attr recordingmode vector(packetBytes)
attr source rxPkOk
attr title "packets received OK, packetBytes"
vector 233 UseCase.DSTT.eth[1].mac passedUpPk:vector(packetBytes) ETV
attr interpolationmode none
attr recordingmode vector(packetBytes)
attr source packetSentToUpper
attr title "packets passed to higher layer, packetBytes"
vector 234 UseCase.switch5GC.eth[0].phyLayer.receiver receptionTime:vector ETV
attr interpolationmode none
attr recordingmode vector
attr source packetDuration(receptionEnded)
attr title "reception time"
attr unit s
vector 235 UseCase.switch5GC.eth[0].phyLayer.inboundEmitter incomingPacketLengths:vector ETV
attr interpolationmode none
attr recordingmode vector
attr source "packetLength(merge(packetPushedIn, packetPulledIn))"
attr title "incoming packet lengths"
attr unit b
vector 236 UseCase.switch5GC.eth[0].phyLayer.inboundEmitter outgoingPacketLengths:vector ETV
attr interpolationmode none
attr recordingmode vector
attr source "packetLength(merge(packetPushedOut, packetPulledOut))"
attr title "outgoing packet lengths"
attr unit b
vector 237 UseCase.switch5GC.eth[0].phyLayer.phyHeaderChecker incomingPacketLengths:vector ETV
attr interpolationmode none
attr recordingmode vector
attr source "packetLength(merge(packetPushedIn, packetPulledIn))"
attr title "incoming packet lengths"
attr unit b
vector 238 UseCase.switch5GC.eth[0].phyLayer.phyHeaderChecker outgoingPacketLengths:vector ETV
attr interpolationmode none
attr recordingmode vector
attr source "packetLength(merge(packetPushedOut, packetPulledOut))"
attr title "outgoing packet lengths"
attr unit b
vector 239 UseCase.switch5GC.eth[0].macLayer.inboundEmitter incomingPacketLengths:vector ETV
attr interpolationmode none
attr recordingmode vector
attr source "packetLength(merge(packetPushedIn, packetPulledIn))"
attr title "incoming packet lengths"
attr unit b
vector 240 UseCase.switch5GC.eth[0].macLayer.inboundEmitter outgoingPacketLengths:vector ETV
attr interpolationmode none
attr recordingmode vector
attr source "packetLength(merge(packetPushedOut, packetPulledOut))"
attr title "outgoing packet lengths"
attr unit b
vector 241 UseCase.switch5GC.eth[0].macLayer.fcsChecker incomingPacketLengths:vector ETV
attr interpolationmode none
attr recordingmode vector
attr source "packetLength(merge(packetPushedIn, packetPulledIn))"
attr title "incoming packet lengths"
attr unit b
vector 242 UseCase.switch5GC.eth[0].macLayer.fcsChecker outgoingPacketLengths:vector ETV
attr interpolationmode none
attr recordingmode vector
attr source "packetLength(merge(packetPushedOut, packetPulledOut))"
attr title "outgoing packet lengths"
attr unit b
vector 243 UseCase.switchTSN.eth[1].phyLayer.receiver receptionTime:vector ETV
attr interpolationmode none
attr recordingmode vector
attr source packetDuration(receptionEnded)
attr title "reception time"
attr unit s
vector 244 UseCase.switchTSN.eth[1].phyLayer.inboundEmitter incomingPacketLengths:vector ETV
attr interpolationmode none
attr recordingmode vector
attr source "packetLength(merge(packetPushedIn, packetPulledIn))"
attr title "incoming packet lengths"
attr unit b
vector 245 UseCase.switchTSN.eth[1].phyLayer.inboundEmitter outgoingPacketLengths:vector ETV
attr interpolationmode none
attr recordingmode vector
attr source "packetLength(merge(packetPushedOut, packetPulledOut))"
attr title "outgoing packet lengths"
attr unit b
vector 246 UseCase.switchTSN.eth[1].phyLayer.phyHeaderChecker incomingPacketLengths:vector ETV
attr interpolationmode none
attr recordingmode vector
attr source "packetLength(merge(packetPushedIn, packetPulledIn))"
attr title "incoming packet lengths"
attr unit b
vector 247 UseCase.switchTSN.eth[1].phyLayer.phyHeaderChecker outgoingPacketLengths:vector ETV
attr interpolationmode none
attr recordingmode vector
attr source "packetLength(merge(packetPushedOut, packetPulledOut))"
attr title "outgoing packet lengths"
attr unit b
vector 248 UseCase.switchTSN.eth[1].macLayer.inboundEmitter incomingPacketLengths:vector ETV
attr interpolationmode none
attr recordingmode vector
attr source "packetLength(merge(packetPushedIn, packetPulledIn))"
attr title "incoming packet lengths"
attr unit b
vector 249 UseCase.switchTSN.eth[1].macLayer.inboundEmitter outgoingPacketLengths:vector ETV
attr interpolationmode none
attr recordingmode vector
attr source "packetLength(merge(packetPushedOut, packetPulledOut))"
attr title "outgoing packet lengths"
attr unit b
vector 250 UseCase.switchTSN.eth[1].macLayer.fcsChecker incomingPacketLengths:vector ETV
attr interpolationmode none
attr recordingmode vector
attr source "packetLength(merge(packetPushedIn, packetPulledIn))"
attr title "incoming packet lengths"
attr unit b
vector 251 UseCase.switchTSN.eth[1].macLayer.fcsChecker outgoingPacketLengths:vector ETV
attr interpolationmode none
attr recordingmode vector
attr source "packetLength(merge(packetPushedOut, packetPulledOut))"
attr title "outgoing packet lengths"
attr unit b
vector 252 UseCase.DSTT.ethernet decapPk:vector(packetBytes) ETV
attr interpolationmode none
attr recordingmode vector(packetBytes)
attr source decapPk
attr title "packets decapsulated, packetBytes"
vector 253 UseCase.switchTSN.eth[2].macLayer.queue incomingPacketLengths:vector ETV
attr interpolationmode none
attr recordingmode vector
attr source packetLength(packetPushStarted)
attr title "incoming packet lengths"
attr unit b
vector 254 UseCase.switchTSN.eth[1].macLayer.queue incomingPacketLengths:vector ETV
attr interpolationmode none
attr recordingmode vector
attr source packetLength(packetPushStarted)
attr title "incoming packet lengths"
attr unit b
vector 255 UseCase.switchTSN.eth[2].macLayer.queue queueingTime:vector ETV
attr interpolationmode none
attr recordingmode vector
attr source queueingTime(packetPulled)
attr title "queueing times"
attr unit s
vector 256 UseCase.switchTSN.eth[2].macLayer.queue outgoingPacketLengths:vector ETV
attr interpolationmode none
attr recordingmode vector
attr source packetLength(packetPulled)
attr title "outgoing packet lengths"
attr unit b
vector 257 UseCase.switchTSN.eth[2].macLayer.server incomingPacketLengths:vector ETV
attr interpolationmode none
attr recordingmode vector
attr source packetLength(packetPulled)
attr title "incoming packet lengths"
attr unit b
vector 258 UseCase.switchTSN.eth[2].macLayer.server outgoingPacketLengths:vector ETV
attr interpolationmode none
attr recordingmode vector
attr source packetLength(packetPushed)
attr title "outgoing packet lengths"
attr unit b
vector 259 UseCase.switchTSN.eth[2].macLayer.outboundEmitter incomingPacketLengths:vector ETV
attr interpolationmode none
attr recordingmode vector
attr source "packetLength(merge(packetPushedIn, packetPulledIn))"
attr title "incoming packet lengths"
attr unit b
vector 260 UseCase.switchTSN.eth[2].macLayer.outboundEmitter outgoingPacketLengths:vector ETV
attr interpolationmode none
attr recordingmode vector
attr source "packetLength(merge(packetPushedOut, packetPulledOut))"
attr title "outgoing packet lengths"
attr unit b
vector 261 UseCase.switchTSN.eth[2].phyLayer.phyHeaderInserter incomingPacketLengths:vector ETV
attr interpolationmode none
attr recordingmode vector
attr source "packetLength(merge(packetPushedIn, packetPulledIn))"
attr title "incoming packet lengths"
attr unit b
vector 262 UseCase.switchTSN.eth[2].phyLayer.phyHeaderInserter outgoingPacketLengths:vector ETV
attr interpolationmode none
attr recordingmode vector
attr source "packetLength(merge(packetPushedOut, packetPulledOut))"
attr title "outgoing packet lengths"
attr unit b
vector 263 UseCase.switchTSN.eth[2].phyLayer.outboundEmitter incomingPacketLengths:vector ETV
attr interpolationmode none
attr recordingmode vector
attr source "packetLength(merge(packetPushedIn, packetPulledIn))"
attr title "incoming packet lengths"
attr unit b
vector 264 UseCase.switchTSN.eth[2].phyLayer.outboundEmitter outgoingPacketLengths:vector ETV
attr interpolationmode none
attr recordingmode vector
attr source "packetLength(merge(packetPushedOut, packetPulledOut))"
attr title "outgoing packet lengths"
attr unit b
vector 265 UseCase.switchTSN.eth[1].macLayer.queue queueingTime:vector ETV
attr interpolationmode none
attr recordingmode vector
attr source queueingTime(packetPulled)
attr title "queueing times"
attr unit s
vector 266 UseCase.switchTSN.eth[1].macLayer.queue outgoingPacketLengths:vector ETV
attr interpolationmode none
attr recordingmode vector
attr source packetLength(packetPulled)
attr title "outgoing packet lengths"
attr unit b
vector 267 UseCase.switchTSN.eth[1].macLayer.server incomingPacketLengths:vector ETV
attr interpolationmode none
attr recordingmode vector
attr source packetLength(packetPulled)
attr title "incoming packet lengths"
attr unit b
vector 268 UseCase.switchTSN.eth[1].macLayer.server outgoingPacketLengths:vector ETV
attr interpolationmode none
attr recordingmode vector
attr source packetLength(packetPushed)
attr title "outgoing packet lengths"
attr unit b
vector 269 UseCase.switchTSN.eth[1].macLayer.outboundEmitter incomingPacketLengths:vector ETV
attr interpolationmode none
attr recordingmode vector
attr source "packetLength(merge(packetPushedIn, packetPulledIn))"
attr title "incoming packet lengths"
attr unit b
vector 270 UseCase.switchTSN.eth[1].macLayer.outboundEmitter outgoingPacketLengths:vector ETV
attr interpolationmode none
attr recordingmode vector
attr source "packetLength(merge(packetPushedOut, packetPulledOut))"
attr title "outgoing packet lengths"
attr unit b
vector 271 UseCase.switchTSN.eth[1].phyLayer.phyHeaderInserter incomingPacketLengths:vector ETV
attr interpolationmode none
attr recordingmode vector
attr source "packetLength(merge(packetPushedIn, packetPulledIn))"
attr title "incoming packet lengths"
attr unit b
vector 272 UseCase.switchTSN.eth[1].phyLayer.phyHeaderInserter outgoingPacketLengths:vector ETV
attr interpolationmode none
attr recordingmode vector
attr source "packetLength(merge(packetPushedOut, packetPulledOut))"
attr title "outgoing packet lengths"
attr unit b
vector 273 UseCase.switchTSN.eth[1].phyLayer.outboundEmitter incomingPacketLengths:vector ETV
attr interpolationmode none
attr recordingmode vector
attr source "packetLength(merge(packetPushedIn, packetPulledIn))"
attr title "incoming packet lengths"
attr unit b
vector 274 UseCase.switchTSN.eth[1].phyLayer.outboundEmitter outgoingPacketLengths:vector ETV
attr interpolationmode none
attr recordingmode vector
attr source "packetLength(merge(packetPushedOut, packetPulledOut))"
attr title "outgoing packet lengths"
attr unit b
vector 275 UseCase.switch5GC.ethernet.macHeaderInserter incomingPacketLengths:vector ETV
attr interpolationmode none
attr recordingmode vector
attr source "packetLength(merge(packetPushedIn, packetPulledIn))"
attr title "incoming packet lengths"
attr unit b
vector 276 UseCase.switch5GC.ethernet.macHeaderInserter outgoingPacketLengths:vector ETV
attr interpolationmode none
attr recordingmode vector
attr source "packetLength(merge(packetPushedOut, packetPulledOut))"
attr title "outgoing packet lengths"
attr unit b
vector 277 UseCase.switch5GC.ethernet.paddingInserter incomingPacketLengths:vector ETV
attr interpolationmode none
attr recordingmode vector
attr source "packetLength(merge(packetPushedIn, packetPulledIn))"
attr title "incoming packet lengths"
attr unit b
vector 278 UseCase.switch5GC.ethernet.paddingInserter outgoingPacketLengths:vector ETV
attr interpolationmode none
attr recordingmode vector
attr source "packetLength(merge(packetPushedOut, packetPulledOut))"
attr title "outgoing packet lengths"
attr unit b
vector 279 UseCase.switch5GC.ethernet.fcsInserter incomingPacketLengths:vector ETV
attr interpolationmode none
attr recordingmode vector
attr source "packetLength(merge(packetPushedIn, packetPulledIn))"
attr title "incoming packet lengths"
attr unit b
vector 280 UseCase.switch5GC.ethernet.fcsInserter outgoingPacketLengths:vector ETV
attr interpolationmode none
attr recordingmode vector
attr source "packetLength(merge(packetPushedOut, packetPulledOut))"
attr title "outgoing packet lengths"
attr unit b
vector 281 UseCase.switch5GC.eth[1].macLayer.queue incomingPacketLengths:vector ETV
attr interpolationmode none
attr recordingmode vector
attr source packetLength(packetPushStarted)
attr title "incoming packet lengths"
attr unit b
vector 282 UseCase.switch5GC.eth[0].macLayer.queue incomingPacketLengths:vector ETV
attr interpolationmode none
attr recordingmode vector
attr source packetLength(packetPushStarted)
attr title "incoming packet lengths"
attr unit b
vector 283 UseCase.switch5GC.eth[1].macLayer.queue queueingTime:vector ETV
attr interpolationmode none
attr recordingmode vector
attr source queueingTime(packetPulled)
attr title "queueing times"
attr unit s
vector 284 UseCase.switch5GC.eth[1].macLayer.queue outgoingPacketLengths:vector ETV
attr interpolationmode none
attr recordingmode vector
attr source packetLength(packetPulled)
attr title "outgoing packet lengths"
attr unit b
vector 285 UseCase.switch5GC.eth[1].macLayer.server incomingPacketLengths:vector ETV
attr interpolationmode none
attr recordingmode vector
attr source packetLength(packetPulled)
attr title "incoming packet lengths"
attr unit b
vector 286 UseCase.switch5GC.eth[1].macLayer.server outgoingPacketLengths:vector ETV
attr interpolationmode none
attr recordingmode vector
attr source packetLength(packetPushed)
attr title "outgoing packet lengths"
attr unit b
vector 287 UseCase.switch5GC.eth[1].macLayer.outboundEmitter incomingPacketLengths:vector ETV
attr interpolationmode none
attr recordingmode vector
attr source "packetLength(merge(packetPushedIn, packetPulledIn))"
attr title "incoming packet lengths"
attr unit b
vector 288 UseCase.switch5GC.eth[1].macLayer.outboundEmitter outgoingPacketLengths:vector ETV
attr interpolationmode none
attr recordingmode vector
attr source "packetLength(merge(packetPushedOut, packetPulledOut))"
attr title "outgoing packet lengths"
attr unit b
vector 289 UseCase.switch5GC.eth[1].phyLayer.phyHeaderInserter incomingPacketLengths:vector ETV
attr interpolationmode none
attr recordingmode vector
attr source "packetLength(merge(packetPushedIn, packetPulledIn))"
attr title "incoming packet lengths"
attr unit b
vector 290 UseCase.switch5GC.eth[1].phyLayer.phyHeaderInserter outgoingPacketLengths:vector ETV
attr interpolationmode none
attr recordingmode vector
attr source "packetLength(merge(packetPushedOut, packetPulledOut))"
attr title "outgoing packet lengths"
attr unit b
vector 291 UseCase.switch5GC.eth[1].phyLayer.outboundEmitter incomingPacketLengths:vector ETV
attr interpolationmode none
attr recordingmode vector
attr source "packetLength(merge(packetPushedIn, packetPulledIn))"
attr title "incoming packet lengths"
attr unit b
vector 292 UseCase.switch5GC.eth[1].phyLayer.outboundEmitter outgoingPacketLengths:vector ETV
attr interpolationmode none
attr recordingmode vector
attr source "packetLength(merge(packetPushedOut, packetPulledOut))"
attr title "outgoing packet lengths"
attr unit b
vector 293 UseCase.switch5GC.eth[0].macLayer.queue queueingTime:vector ETV
attr interpolationmode none
attr recordingmode vector
attr source queueingTime(packetPulled)
attr title "queueing times"
attr unit s
vector 294 UseCase.switch5GC.eth[0].macLayer.queue outgoingPacketLengths:vector ETV
attr interpolationmode none
attr recordingmode vector
attr source packetLength(packetPulled)
attr title "outgoing packet lengths"
attr unit b
vector 295 UseCase.switch5GC.eth[0].macLayer.server incomingPacketLengths:vector ETV
attr interpolationmode none
attr recordingmode vector
attr source packetLength(packetPulled)
attr title "incoming packet lengths"
attr unit b
vector 296 UseCase.switch5GC.eth[0].macLayer.server outgoingPacketLengths:vector ETV
attr interpolationmode none
attr recordingmode vector
attr source packetLength(packetPushed)
attr title "outgoing packet lengths"
attr unit b
vector 297 UseCase.switch5GC.eth[0].macLayer.outboundEmitter incomingPacketLengths:vector ETV
attr interpolationmode none
attr recordingmode vector
attr source "packetLength(merge(packetPushedIn, packetPulledIn))"
attr title "incoming packet lengths"
attr unit b
vector 298 UseCase.switch5GC.eth[0].macLayer.outboundEmitter outgoingPacketLengths:vector ETV
attr interpolationmode none
attr recordingmode vector
attr source "packetLength(merge(packetPushedOut, packetPulledOut))"
attr title "outgoing packet lengths"
attr unit b
vector 299 UseCase.switch5GC.eth[0].phyLayer.phyHeaderInserter incomingPacketLengths:vector ETV
attr interpolationmode none
attr recordingmode vector
attr source "packetLength(merge(packetPushedIn, packetPulledIn))"
attr title "incoming packet lengths"
attr unit b
vector 300 UseCase.switch5GC.eth[0].phyLayer.phyHeaderInserter outgoingPacketLengths:vector ETV
attr interpolationmode none
attr recordingmode vector
attr source "packetLength(merge(packetPushedOut, packetPulledOut))"
attr title "outgoing packet lengths"
attr unit b
vector 301 UseCase.switch5GC.eth[0].phyLayer.outboundEmitter incomingPacketLengths:vector ETV
attr interpolationmode none
attr recordingmode vector
attr source "packetLength(merge(packetPushedIn, packetPulledIn))"
attr title "incoming packet lengths"
attr unit b
vector 302 UseCase.switch5GC.eth[0].phyLayer.outboundEmitter outgoingPacketLengths:vector ETV
attr interpolationmode none
attr recordingmode vector
attr source "packetLength(merge(packetPushedOut, packetPulledOut))"
attr title "outgoing packet lengths"
attr unit b
vector 303 UseCase.DSTT.ethernet encapPk:vector(packetBytes) ETV
attr interpolationmode none
attr recordingmode vector(packetBytes)
attr source encapPk
attr title "packets encapsulated, packetBytes"
vector 304 UseCase.DSTT.eth[1].queue incomingPacketLengths:vector ETV
attr interpolationmode none
attr recordingmode vector
attr source packetLength(packetPushStarted)
attr title "incoming packet lengths"
attr unit b
vector 305 UseCase.DSTT.eth[1].queue queueingTime:vector ETV
attr interpolationmode none
attr recordingmode vector
attr source queueingTime(packetPulled)
attr title "queueing times"
attr unit s
vector 306 UseCase.DSTT.eth[1].queue outgoingPacketLengths:vector ETV
attr interpolationmode none
attr recordingmode vector
attr source packetLength(packetPulled)
attr title "outgoing packet lengths"
attr unit b
vector 307 UseCase.DSTT.eth[1].mac packetReceivedFromUpper:vector(packetBytes) ETV
attr interpolationmode none
attr recordingmode vector(packetBytes)
attr source packetReceivedFromUpper
attr title "packet bytes from higher layer, packetBytes"
vector 308 UseCase.switchTSN.eth[2].phyLayer.transmitter transmissionTime:vector ETV
attr interpolationmode none
attr recordingmode vector
attr source packetDuration(transmissionEnded)
attr title "transmission time"
attr unit s
vector 309 UseCase.switchTSN.eth[1].phyLayer.transmitter transmissionTime:vector ETV
attr interpolationmode none
attr recordingmode vector
attr source packetDuration(transmissionEnded)
attr title "transmission time"
attr unit s
vector 310 UseCase.switch5GC.eth[1].phyLayer.transmitter transmissionTime:vector ETV
attr interpolationmode none
attr recordingmode vector
attr source packetDuration(transmissionEnded)
attr title "transmission time"
attr unit s
vector 311 UseCase.switch5GC.eth[0].phyLayer.transmitter transmissionTime:vector ETV
attr interpolationmode none
attr recordingmode vector
attr source packetDuration(transmissionEnded)
attr title "transmission time"
attr unit s
vector 312 UseCase.DSTT.eth[1].mac txPk:vector(packetBytes) ETV
attr interpolationmode none
attr recordingmode vector(packetBytes)
attr source packetSentToLower
attr title "packets transmitted, packetBytes"
vector 313 UseCase.Actuator.eth[0].phyLayer.receiver receptionTime:vector ETV
attr interpolationmode none
attr recordingmode vector
attr source packetDuration(receptionEnded)
attr title "reception time"
attr unit s
vector 314 UseCase.Actuator.eth[0].phyLayer.inboundEmitter incomingPacketLengths:vector ETV
attr interpolationmode none
attr recordingmode vector
attr source "packetLength(merge(packetPushedIn, packetPulledIn))"
attr title "incoming packet lengths"
attr unit b
vector 315 UseCase.Actuator.eth[0].phyLayer.inboundEmitter outgoingPacketLengths:vector ETV
attr interpolationmode none
attr recordingmode vector
attr source "packetLength(merge(packetPushedOut, packetPulledOut))"
attr title "outgoing packet lengths"
attr unit b
vector 316 UseCase.Actuator.eth[0].phyLayer.phyHeaderChecker incomingPacketLengths:vector ETV
[...]
584	67176463 22 1804628 1804628 200 200 1 11520 11520 11520 132710400
585	67176485 22 1804628 1804628 200 200 1 11520 11520 11520 132710400
586	67176507 22 1804628 1804628 200 200 1 11520 11520 11520 132710400
587	67176529 22 1804628 1804628 200 200 1 11520 11520 11520 132710400
588	67176551 22 1804628 1804628 200 200 1 11520 11520 11520 132710400
589	67176573 22 1804628 1804628 200 200 1 10880 10880 10880 118374400
590	67176595 22 1804628 1804628 200 200 1 10880 10880 10880 118374400
591	67176617 21 1804628 1804628 200 200 1 8640 8640 8640 74649600
626	67176638 21 1804628 1804628 200 200 1 6400 6400 6400 40960000
627	67176659 21 1804628 1804628 200 200 1 6400 6400 6400 40960000
628	67176680 21 1804628 1804628 200 200 1 6400 6400 6400 40960000
629	67176701 21 1804628 1804628 200 200 1 6400 6400 6400 40960000
630	67176722 21 1804628 1804628 200 200 1 5760 5760 5760 33177600
631	67176743 21 1804628 1804628 200 200 1 5760 5760 5760 33177600
632	67176764 21 1804628 1804628 200 200 1 5760 5760 5760 33177600
633	67176785 21 1804628 1804628 200 200 1 5760 5760 5760 33177600
634	67176806 21 1804628 1804628 200 200 1 5760 5760 5760 33177600
635	67176827 21 1804628 1804628 200 200 1 5760 5760 5760 33177600
636	67176848 21 1804628 1804628 200 200 1 5760 5760 5760 33177600
637	67176869 21 1804628 1804628 200 200 1 5760 5760 5760 33177600
638	67176890 21 1804628 1804628 200 200 1 5760 5760 5760 33177600
639	67176911 21 1804628 1804628 200 200 1 5760 5760 5760 33177600
640	67176932 21 1804628 1804628 200 200 1 5760 5760 5760 33177600
641	67176953 21 1804628 1804628 200 200 1 5760 5760 5760 33177600
642	67176974 21 1804628 1804628 200 200 1 6400 6400 6400 40960000
643	67176995 21 1804628 1804628 200 200 1 6400 6400 6400 40960000
644	67177016 21 1804628 1804628 200 200 1 6400 6400 6400 40960000
645	67177037 24 1804628 1804628 200 200 1 0.00064 0.00064 0.00064 4.096e-07
646	67177061 21 1804628 1804628 200 200 1 6400 6400 6400 40960000
647	67177082 21 1804628 1804628 200 200 1 4320 4320 4320 18662400
648	67177103 21 1804628 1804628 200 200 1 5440 5440 5440 29593600
649	67177124 21 1804628 1804628 200 200 1 5440 5440 5440 29593600
650	67177145 21 1804628 1804628 200 200 1 5440 5440 5440 29593600
651	67177166 21 1804628 1804628 200 200 1 5440 5440 5440 29593600
652	67177187 21 1804628 1804628 200 200 1 5760 5760 5760 33177600
653	67177208 21 1804628 1804628 200 200 1 5760 5760 5760 33177600
654	67177229 21 1804628 1804628 200 200 1 5760 5760 5760 33177600
655	67177250 21 1804628 1804628 200 200 1 5760 5760 5760 33177600
656	67177271 21 1804628 1804628 200 200 1 5760 5760 5760 33177600
657	67177292 21 1804628 1804628 200 200 1 5760 5760 5760 33177600
658	67177313 21 1804628 1804628 200 200 1 5760 5760 5760 33177600
659	67177334 21 1804628 1804628 200 200 1 5760 5760 5760 33177600
660	67177355 21 1804628 1804628 200 200 1 6400 6400 6400 40960000
661	67177376 21 1804628 1804628 200 200 1 6400 6400 6400 40960000
662	67177397 21 1804628 1804628 200 200 1 6400 6400 6400 40960000
663	67177418 24 1804628 1804628 200 200 1 0.00064 0.00064 0.00064 4.096e-07
664	67177442 21 1804628 1804628 200 200 1 6400 6400 6400 40960000
665	67177463 21 1804628 1804628 200 200 1 6400 6400 6400 40960000
666	67177484 21 1804628 1804628 200 200 1 6400 6400 6400 40960000
667	67177505 21 1804628 1804628 200 200 1 6400 6400 6400 40960000
668	67177526 21 1804628 1804628 200 200 1 6400 6400 6400 40960000
669	67177547 21 1804628 1804628 200 200 1 5760 5760 5760 33177600
670	67177568 21 1804628 1804628 200 200 1 5760 5760 5760 33177600
671	67177589 21 1804628 1804628 200 200 1 5760 5760 5760 33177600
672	67177610 21 1804628 1804628 200 200 1 5760 5760 5760 33177600
673	67177631 21 1804628 1804628 200 200 1 5760 5760 5760 33177600
674	67177652 21 1804628 1804628 200 200 1 5760 5760 5760 33177600
675	67177673 21 1804628 1804628 200 200 1 5440 5440 5440 29593600
676	67177694 21 1804628 1804628 200 200 1 5440 5440 5440 29593600
677	67177715 21 1804628 1804628 200 200 1 4320 4320 4320 18662400
680	67177736 21 1804628 1804628 200 200 1 4320 4320 4320 18662400
681	67177757 21 1804628 1804628 200 200 1 5440 5440 5440 29593600
682	67177778 21 1804628 1804628 200 200 1 5440 5440 5440 29593600
683	67177799 21 1804628 1804628 200 200 1 5440 5440 5440 29593600
684	67177820 21 1804628 1804628 200 200 1 5440 5440 5440 29593600
685	67177841 21 1804628 1804628 200 200 1 5760 5760 5760 33177600
686	67177862 21 1804628 1804628 200 200 1 5760 5760 5760 33177600
687	67177883 21 1804628 1804628 200 200 1 5760 5760 5760 33177600
688	67177904 21 1804628 1804628 200 200 1 5760 5760 5760 33177600
689	67177925 21 1804628 1804628 200 200 1 5760 5760 5760 33177600
690	67177946 21 1804628 1804628 200 200 1 5760 5760 5760 33177600
691	67177967 21 1804628 1804628 200 200 1 5760 5760 5760 33177600
692	67177988 21 1804628 1804628 200 200 1 5760 5760 5760 33177600
693	67178009 21 1804628 1804628 200 200 1 6400 6400 6400 40960000
694	67178030 21 1804628 1804628 200 200 1 6400 6400 6400 40960000
695	67178051 21 1804628 1804628 200 200 1 6400 6400 6400 40960000
696	67178072 24 1804628 1804628 200 200 1 0.00064 0.00064 0.00064 4.096e-07
697	67178096 21 1804628 1804628 200 200 1 6400 6400 6400 40960000
698	67178117 21 1804628 1804628 200 200 1 6400 6400 6400 40960000
699	67178138 21 1804628 1804628 200 200 1 6400 6400 6400 40960000
700	67178159 21 1804628 1804628 200 200 1 6400 6400 6400 40960000
701	67178180 21 1804628 1804628 200 200 1 6400 6400 6400 40960000
702	67178201 21 1804628 1804628 200 200 1 5760 5760 5760 33177600
703	67178222 21 1804628 1804628 200 200 1 5760 5760 5760 33177600
704	67178243 21 1804628 1804628 200 200 1 5760 5760 5760 33177600
705	67178264 21 1804628 1804628 200 200 1 5760 5760 5760 33177600
706	67178285 21 1804628 1804628 200 200 1 5760 5760 5760 33177600
711	67178306 201 1804628 1804628 199.1 200 10 0 6400 6400 40960000
712	67178507 201 1804628 1804628 199.1 200 10 0 6400 6400 40960000
713	67178708 201 1804628 1804628 199.1 200 10 0 6400 6400 40960000
714	67178909 201 1804628 1804628 199.1 200 10 0 6400 6400 40960000
715	67179110 201 1804628 1804628 199.1 200 10 0 5760 5760 33177600
716	67179311 201 1804628 1804628 199.1 200 10 0 5760 5760 33177600
717	67179512 201 1804628 1804628 199.1 200 10 0 5760 5760 33177600
718	67179713 201 1804628 1804628 199.1 200 10 0 5760 5760 33177600
719	67179914 201 1804628 1804628 199.1 200 10 0 5760 5760 33177600
892	67180115 35217 1804628 1804628 18.1 200 1820 0 0 0 0
893	67215332 38502 1804628 1804628 0.1 200 2000 0 0 0 0
894	67253834 38502 1804628 1804628 0.1 200 2000 0 0 0 0
895	67292336 38502 1804628 1804628 0.1 200 2000 0 0 0 0
896	67330838 38502 1804628 1804628 0.1 200 2000 0 0 0 0
897	67369340 38502 1804628 1804628 0.1 200 2000 0 0 0 0
898	67407842 38502 1804628 1804628 0.1 200 2000 0 0 0 0
899	67446344 38502 1804628 1804628 0.1 200 2000 0 0 0 0
900	67484846 38502 1804628 1804628 0.1 200 2000 0 0 0 0
901	67523348 38502 1804628 1804628 0.1 200 2000 0 0 0 0
902	67561850 38502 1804628 1804628 0.1 200 2000 0 0 0 0
903	67600352 38502 1804628 1804628 0.1 200 2000 0 0 0 0
904	67638854 38502 1804628 1804628 0.1 200 2000 0 0 0 0
905	67677356 38502 1804628 1804628 0.1 200 2000 0 0 0 0
906	67715858 38502 1804628 1804628 0.1 200 2000 0 0 0 0
907	67754360 38502 1804628 1804628 0.1 200 2000 0 0 0 0
908	67792862 38502 1804628 1804628 0.1 200 2000 0 0 0 0
909	67831364 38502 1804628 1804628 0.1 200 2000 0 0 0 0
910	67869866 38502 1804628 1804628 0.1 200 2000 0 0 0 0
911	67908368 38502 1804628 1804628 0.1 200 2000 0 0 0 0
912	67946870 38502 1804628 1804628 0.1 200 2000 0 0 0 0
913	67985372 38502 1804628 1804628 0.1 200 2000 0 0 0 0
914	68023874 38502 1804628 1804628 0.1 200 2000 0 0 0 0
915	68062376 38502 1804628 1804628 0.1 200 2000 0 0 0 0
916	68100878 38502 1804628 1804628 0.1 200 2000 0 0 0 0
917	68139380 38502 1804628 1804628 0.1 200 2000 0 0 0 0
918	68177882 38502 1804628 1804628 0.1 200 2000 0 0 0 0
919	68216384 38502 1804628 1804628 0.1 200 2000 0 0 0 0
920	68254886 38502 1804628 1804628 0.1 200 2000 0 0 0 0
921	68293388 38502 1804628 1804628 0.1 200 2000 0 0 0 0
922	68331890 38502 1804628 1804628 0.1 200 2000 0 0 0 0
923	68370392 38502 1804628 1804628 0.1 200 2000 0 0 0 0
924	68408894 38502 1804628 1804628 0.1 200 2000 0 0 0 0
925	68447396 38502 1804628 1804628 0.1 200 2000 0 0 0 0
926	68485898 38502 1804628 1804628 0.1 200 2000 0 0 0 0
927	68524400 38502 1804628 1804628 0.1 200 2000 0 0 0 0
928	68562902 38502 1804628 1804628 0.1 200 2000 0 0 0 0
929	68601404 38502 1804628 1804628 0.1 200 2000 0 0 0 0
930	68639906 38502 1804628 1804628 0.1 200 2000 0 0 0 0
931	68678408 38502 1804628 1804628 0.1 200 2000 0 0 0 0
932	68716910 38502 1804628 1804628 0.1 200 2000 0 0 0 0
933	68755412 38502 1804628 1804628 0.1 200 2000 0 0 0 0
934	68793914 38502 1804628 1804628 0.1 200 2000 0 0 0 0
935	68832416 38502 1804628 1804628 0.1 200 2000 0 0 0 0
936	68870918 38502 1804628 1804628 0.1 200 2000 0 0 0 0
937	68909420 38502 1804628 1804628 0.1 200 2000 0 0 0 0
938	68947922 38502 1804628 1804628 0.1 200 2000 0 0 0 0
939	68986424 38502 1804628 1804628 0.1 200 2000 0 0 0 0
940	69024926 38502 1804628 1804628 0.1 200 2000 0 0 0 0
941	69063428 38502 1804628 1804628 0.1 200 2000 0 0 0 0
942	69101930 38502 1804628 1804628 0.1 200 2000 0 0 0 0
943	69140432 38502 1804628 1804628 0.1 200 2000 0 0 0 0
944	69178934 38502 1804628 1804628 0.1 200 2000 0 0 0 0
945	69217436 38502 1804628 1804628 0.1 200 2000 0 0 0 0
946	69255938 38502 1804628 1804628 0.1 200 2000 0 0 0 0
947	69294440 38502 1804628 1804628 0.1 200 2000 0 0 0 0
948	69332942 38502 1804628 1804628 0.1 200 2000 0 0 0 0
949	69371444 38502 1804628 1804628 0.1 200 2000 0 0 0 0
950	69409946 38502 1804628 1804628 0.1 200 2000 0 0 0 0
951	69448448 38502 1804628 1804628 0.1 200 2000 0 0 0 0
952	69486950 38502 1804628 1804628 0.1 200 2000 0 0 0 0
953	69525452 38502 1804628 1804628 0.1 200 2000 0 0 0 0
954	69563954 38502 1804628 1804628 0.1 200 2000 0 0 0 0
955	69602456 38502 1804628 1804628 0.1 200 2000 0 0 0 0
956	69640958 38502 1804628 1804628 0.1 200 2000 0 0 0 0
957	69679460 38502 1804628 1804628 0.1 200 2000 0 0 0 0
958	69717962 38502 1804628 1804628 0.1 200 2000 0 0 0 0
959	69756464 38502 1804628 1804628 0.1 200 2000 0 0 0 0
960	69794966 38502 1804628 1804628 0.1 200 2000 0 0 0 0
961	69833468 38502 1804628 1804628 0.1 200 2000 0 0 0 0
962	69871970 38502 1804628 1804628 0.1 200 2000 0 0 0 0
963	69910472 38502 1804628 1804628 0.1 200 2000 0 0 0 0
964	69948974 38502 1804628 1804628 0.1 200 2000 0 0 0 0
965	69987476 38502 1804628 1804628 0.1 200 2000 0 0 0 0
966	70025978 38502 1804628 1804628 0.1 200 2000 0 0 0 0
967	70064480 38502 1804628 1804628 0.1 200 2000 0 0 0 0
968	70102982 38502 1804628 1804628 0.1 200 2000 0 0 0 0
969	70141484 38502 1804628 1804628 0.1 200 2000 0 0 0 0
970	70179986 38502 1804628 1804628 0.1 200 2000 0 0 0 0
971	70218488 38502 1804628 1804628 0.1 200 2000 0 0 0 0
972	70256990 38502 1804628 1804628 0.1 200 2000 0 0 0 0
973	70295492 38502 1804628 1804628 0.1 200 2000 0 0 0 0
974	70333994 38502 1804628 1804628 0.1 200 2000 0 0 0 0
975	70372496 38502 1804628 1804628 0.1 200 2000 0 0 0 0
976	70410998 38502 1804628 1804628 0.1 200 2000 0 0 0 0
977	70449500 38502 1804628 1804628 0.1 200 2000 0 0 0 0
978	70488002 38502 1804628 1804628 0.1 200 2000 0 0 0 0
979	70526504 38502 1804628 1804628 0.1 200 2000 0 0 0 0
980	70565006 38502 1804628 1804628 0.1 200 2000 0 0 0 0
981	70603508 38502 1804628 1804628 0.1 200 2000 0 0 0 0
982	70642010 38502 1804628 1804628 0.1 200 2000 0 0 0 0
983	70680512 38502 1804628 1804628 0.1 200 2000 0 0 0 0
984	70719014 38502 1804628 1804628 0.1 200 2000 0 0 0 0
985	70757516 38502 1804628 1804628 0.1 200 2000 0 0 0 0
986	70796018 38502 1804628 1804628 0.1 200 2000 0 0 0 0
987	70834520 38502 1804628 1804628 0.1 200 2000 0 0 0 0
988	70873022 38502 1804628 1804628 0.1 200 2000 0 0 0 0
989	70911524 38502 1804628 1804628 0.1 200 2000 0 0 0 0
990	70950026 38502 1804628 1804628 0.1 200 2000 0 0 0 0
991	70988528 38502 1804628 1804628 0.1 200 2000 0 0 0 0
992	71027030 38502 1804628 1804628 0.1 200 2000 0 0 0 0
993	71065532 38502 1804628 1804628 0.1 200 2000 0 0 0 0
994	71104034 38502 1804628 1804628 0.1 200 2000 0 0 0 0
995	71142536 38502 1804628 1804628 0.1 200 2000 0 0 0 0
996	71181038 38502 1804628 1804628 0.1 200 2000 0 0 0 0
997	71219540 38502 1804628 1804628 0.1 200 2000 0 0 0 0
998	71258042 38502 1804628 1804628 0.1 200 2000 0 0 0 0
999	71296544 38502 1804628 1804628 0.1 200 2000 0 0 0 0
1000	71335046 40502 1804628 1804628 0.1 200 2000 0 0 0 0
1001	71375548 40502 1804628 1804628 0.1 200 2000 0 0 0 0
1002	71416050 40502 1804628 1804628 0.1 200 2000 0 0 0 0
1003	71456552 40502 1804628 1804628 0.1 200 2000 0 0 0 0
1004	71497054 40502 1804628 1804628 0.1 200 2000 0 0 0 0
1005	71537556 40502 1804628 1804628 0.1 200 2000 0 0 0 0
1006	71578058 40502 1804628 1804628 0.1 200 2000 0 0 0 0
1007	71618560 40502 1804628 1804628 0.1 200 2000 0 0 0 0
1008	71659062 40502 1804628 1804628 0.1 200 2000 0 0 0 0
1009	71699564 40502 1804628 1804628 0.1 200 2000 0 0 0 0
1010	71740066 40502 1804628 1804628 0.1 200 2000 0 0 0 0
1011	71780568 40502 1804628 1804628 0.1 200 2000 0 0 0 0
1012	71821070 40502 1804628 1804628 0.1 200 2000 0 0 0 0
1013	71861572 40502 1804628 1804628 0.1 200 2000 0 0 0 0
1014	71902074 40502 1804628 1804628 0.1 200 2000 0 0 0 0
1015	71942576 40502 1804628 1804628 0.1 200 2000 0 0 0 0
1016	71983078 40502 1804628 1804628 0.1 200 2000 0 0 0 0
1017	72023580 40502 1804628 1804628 0.1 200 2000 0 0 0 0
1018	72064082 40502 1804628 1804628 0.1 200 2000 0 0 0 0
1019	72104584 40502 1804628 1804628 0.1 200 2000 0 0 0 0
1020	72145086 40502 1804628 1804628 0.1 200 2000 0 0 0 0
1021	72185588 40502 1804628 1804628 0.1 200 2000 0 0 0 0
1022	72226090 40502 1804628 1804628 0.1 200 2000 0 0 0 0
1023	72266592 40502 1804628 1804628 0.1 200 2000 0 0 0 0
1024	72307094 40502 1804628 1804628 0.1 200 2000 0 0 0 0
1025	72347596 40502 1804628 1804628 0.1 200 2000 0 0 0 0
1026	72388098 40502 1804628 1804628 0.1 200 2000 0 0 0 0
1027	72428600 40502 1804628 1804628 0.1 200 2000 0 0 0 0
1028	72469102 40502 1804628 1804628 0.1 200 2000 0 0 0 0
1029	72509604 40502 1804628 1804628 0.1 200 2000 0 0 0 0
1030	72550106 40502 1804628 1804628 0.1 200 2000 0 0 0 0
1031	72590608 40502 1804628 1804628 0.1 200 2000 0 0 0 0
1032	72631110 40502 1804628 1804628 0.1 200 2000 0 0 0 0
1033	72671612 40502 1804628 1804628 0.1 200 2000 0 0 0 0
1034	72712114 40502 1804628 1804628 0.1 200 2000 0 0 0 0
1035	72752616 40502 1804628 1804628 0.1 200 2000 0 0 0 0
1036	72793118 40502 1804628 1804628 0.1 200 2000 0 0 0 0
1037	72833620 40502 1804628 1804628 0.1 200 2000 0 0 0 0
1038	72874122 40502 1804628 1804628 0.1 200 2000 0 0 0 0
1039	72914624 40502 1804628 1804628 0.1 200 2000 0 0 0 0
1040	72955126 40502 1804628 1804628 0.1 200 2000 0 0 0 0
1041	72995628 40502 1804628 1804628 0.1 200 2000 0 0 0 0
1042	73036130 40502 1804628 1804628 0.1 200 2000 0 0 0 0
1043	73076632 40502 1804628 1804628 0.1 200 2000 0 0 0 0
1044	73117134 40502 1804628 1804628 0.1 200 2000 0 0 0 0
1045	73157636 40502 1804628 1804628 0.1 200 2000 0 0 0 0
1046	73198138 40502 1804628 1804628 0.1 200 2000 0 0 0 0
1047	73238640 40502 1804628 1804628 0.1 200 2000 0 0 0 0
1048	73279142 40502 1804628 1804628 0.1 200 2000 0 0 0 0
1049	73319644 40502 1804628 1804628 0.1 200 2000 0 0 0 0
1050	73360146 40502 1804628 1804628 0.1 200 2000 0 0 0 0
1051	73400648 40502 1804628 1804628 0.1 200 2000 0 0 0 0
1052	73441150 40502 1804628 1804628 0.1 200 2000 0 0 0 0
1053	73481652 40502 1804628 1804628 0.1 200 2000 0 0 0 0
1054	73522154 40502 1804628 1804628 0.1 200 2000 0 0 0 0
1055	73562656 40502 1804628 1804628 0.1 200 2000 0 0 0 0
1056	73603158 40502 1804628 1804628 0.1 200 2000 0 0 0 0
1057	73643660 40502 1804628 1804628 0.1 200 2000 0 0 0 0
1058	73684162 40502 1804628 1804628 0.1 200 2000 0 0 0 0
1059	73724664 40502 1804628 1804628 0.1 200 2000 0 0 0 0
1060	73765166 40502 1804628 1804628 0.1 200 2000 0 0 0 0
1061	73805668 40502 1804628 1804628 0.1 200 2000 0 0 0 0
1062	73846170 40502 1804628 1804628 0.1 200 2000 0 0 0 0
1063	73886672 40502 1804628 1804628 0.1 200 2000 0 0 0 0
1064	73927174 40502 1804628 1804628 0.1 200 2000 0 0 0 0
1065	73967676 40502 1804628 1804628 0.1 200 2000 0 0 0 0
1066	74008178 40502 1804628 1804628 0.1 200 2000 0 0 0 0
1067	74048680 40502 1804628 1804628 0.1 200 2000 0 0 0 0
1068	74089182 40502 1804628 1804628 0.1 200 2000 0 0 0 0
1069	74129684 40502 1804628 1804628 0.1 200 2000 0 0 0 0
1070	74170186 40502 1804628 1804628 0.1 200 2000 0 0 0 0
1071	74210688 40502 1804628 1804628 0.1 200 2000 0 0 0 0
1072	74251190 40502 1804628 1804628 0.1 200 2000 0 0 0 0
1073	74291692 40502 1804628 1804628 0.1 200 2000 0 0 0 0
1074	74332194 40502 1804628 1804628 0.1 200 2000 0 0 0 0
1075	74372696 40502 1804628 1804628 0.1 200 2000 0 0 0 0
1076	74413198 40502 1804628 1804628 0.1 200 2000 0 0 0 0
1077	74453700 40502 1804628 1804628 0.1 200 2000 0 0 0 0
1078	74494202 40502 1804628 1804628 0.1 200 2000 0 0 0 0
1079	74534704 40502 1804628 1804628 0.1 200 2000 0 0 0 0
1080	74575206 40502 1804628 1804628 0.1 200 2000 0 0 0 0
1081	74615708 40502 1804628 1804628 0.1 200 2000 0 0 0 0
1082	74656210 40502 1804628 1804628 0.1 200 2000 0 0 0 0
1083	74696712 40502 1804628 1804628 0.1 200 2000 0 0 0 0
1084	74737214 40502 1804628 1804628 0.1 200 2000 0 0 0 0
1085	74777716 40502 1804628 1804628 0.1 200 2000 0 0 0 0
1086	74818218 40502 1804628 1804628 0.1 200 2000 0 0 0 0
1087	74858720 40502 1804628 1804628 0.1 200 2000 0 0 0 0
1088	74899222 40502 1804628 1804628 0.1 200 2000 0 0 0 0
1089	74939724 40502 1804628 1804628 0.1 200 2000 0 0 0 0
1090	74980226 40502 1804628 1804628 0.1 200 2000 0 0 0 0
1091	75020728 40502 1804628 1804628 0.1 200 2000 0 0 0 0
1092	75061230 40502 1804628 1804628 0.1 200 2000 0 0 0 0
1093	75101732 40502 1804628 1804628 0.1 200 2000 0 0 0 0
1094	75142234 40502 1804628 1804628 0.1 200 2000 0 0 0 0
1095	75182736 40502 1804628 1804628 0.1 200 2000 0 0 0 0
1096	75223238 40502 1804628 1804628 0.1 200 2000 0 0 0 0
1097	75263740 40502 1804628 1804628 0.1 200 2000 0 0 0 0
1098	75304242 40502 1804628 1804628 0.1 200 2000 0 0 0 0
1099	75344744 40502 1804628 1804628 0.1 200 2000 0 0 0 0
1100	75385246 40502 1804628 1804628 0.1 200 2000 0 0 0 0
1101	75425748 40502 1804628 1804628 0.1 200 2000 0 0 0 0
1102	75466250 40502 1804628 1804628 0.1 200 2000 0 0 0 0
1103	75506752 40502 1804628 1804628 0.1 200 2000 0 0 0 0
1104	75547254 40502 1804628 1804628 0.1 200 2000 0 0 0 0
1105	75587756 40502 1804628 1804628 0.1 200 2000 0 0 0 0
1106	75628258 40502 1804628 1804628 0.1 200 2000 0 0 0 0
1107	75668760 40502 1804628 1804628 0.1 200 2000 0 0 0 0
1108	75709262 40502 1804628 1804628 0.1 200 2000 0 0 0 0
1109	75749764 40502 1804628 1804628 0.1 200 2000 0 0 0 0
1110	75790266 40502 1804628 1804628 0.1 200 2000 0 0 0 0
1111	75830768 40502 1804628 1804628 0.1 200 2000 0 0 0 0
1112	75871270 40502 1804628 1804628 0.1 200 2000 0 0 0 0
1113	75911772 40502 1804628 1804628 0.1 200 2000 0 0 0 0
1114	75952274 40502 1804628 1804628 0.1 200 2000 0 0 0 0
1115	75992776 40502 1804628 1804628 0.1 200 2000 0 0 0 0
1116	76033278 40502 1804628 1804628 0.1 200 2000 0 0 0 0
1117	76073780 40502 1804628 1804628 0.1 200 2000 0 0 0 0
1118	76114282 40502 1804628 1804628 0.1 200 2000 0 0 0 0
1119	76154784 40502 1804628 1804628 0.1 200 2000 0 0 0 0
1120	76195286 40502 1804628 1804628 0.1 200 2000 0 0 0 0
1121	76235788 40502 1804628 1804628 0.1 200 2000 0 0 0 0
1122	76276290 40502 1804628 1804628 0.1 200 2000 0 0 0 0
1123	76316792 40502 1804628 1804628 0.1 200 2000 0 0 0 0
1124	76357294 40502 1804628 1804628 0.1 200 2000 0 0 0 0
1125	76397796 40502 1804628 1804628 0.1 200 2000 0 0 0 0
1126	76438298 40502 1804628 1804628 0.1 200 2000 0 0 0 0
1127	76478800 40502 1804628 1804628 0.1 200 2000 0 0 0 0
1128	76519302 40502 1804628 1804628 0.1 200 2000 0 0 0 0
1129	76559804 40502 1804628 1804628 0.1 200 2000 0 0 0 0
1130	76600306 40502 1804628 1804628 0.1 200 2000 0 0 0 0
1131	76640808 40502 1804628 1804628 0.1 200 2000 0 0 0 0

