version 3
run sendMessage-0-20240226-14:12:22-2609
attr configname sendMessage
attr datetime 20240226-14:12:22
attr datetimef 20240226-141222
attr experiment sendMessage
attr inifile omnetpp.ini
attr iterationvars ""
attr iterationvarsd ""
attr iterationvarsf ""
attr measurement ""
attr network UseCase
attr processid 2609
attr repetition 0
attr replication #0
attr resultdir results
attr runnumber 0
attr seedset 0
config image-path ../../inet/images:../../Simu5G/images
config *.endHost.numApps 1
config *.endHost.app[0].typename UdpBasicApp
config *.endHost.app[0].destAddresses "\"\""
config *.endHost.app[0].destPort 1001
config *.endHost.app[0].localPort 1000
config *.endHost.app[0].messageLength 32B
config *.endHost.app[0].sendInterval 100ms
config *.endHost.app[0].startTime 1ms
config *.receiverTSN.numApps 1
config *.receiverTSN.app[0].typename UdpBasicApp
config *.receiverTSN.app[0].destAddresses "\"NSTT\""
config *.receiverTSN.app[0].destPort 1000
config *.receiverTSN.app[0].localPort 1001
config *.receiverTSN.app[0].messageLength 32B
config *.receiverTSN.app[0].sendInterval 100ms
config *.receiverTSN.app[0].startTime 1ms
config network UseCase
config **.eth[*].bitrate 10Gbps
config **.eth*.bitrate 10Gbps
config **.mobility.typename ""
config *.ue.macCellId 0
config *.ue.masterId 0
config *.ue.nrMacCellId 1
config *.ue.nrMasterId 1
config *.ue.intHostAddress "\"DSTT\""

par UseCase.switch5GC.ethg$o[0].channel typename "\"inet.node.ethernet.Eth10G\""
par UseCase.switch5GC.ethg$o[0].channel disabled false
attr mutable ""
par UseCase.switch5GC.ethg$o[0].channel delay 5e-08s
attr mutable ""
attr unit s
par UseCase.switch5GC.ethg$o[0].channel datarate 1e+10bps
attr mutable ""
attr unit bps
par UseCase.switch5GC.ethg$o[0].channel ber 0
attr mutable ""
par UseCase.switch5GC.ethg$o[0].channel per 0
attr mutable ""
par UseCase.switch5GC.ethg$o[0].channel length 10m
attr unit m
par UseCase.endHost.ethg$o[0].channel typename "\"inet.node.ethernet.Eth10G\""
par UseCase.endHost.ethg$o[0].channel disabled false
attr mutable ""
par UseCase.endHost.ethg$o[0].channel delay 5e-08s
attr mutable ""
attr unit s
par UseCase.endHost.ethg$o[0].channel datarate 1e+10bps
attr mutable ""
attr unit bps
par UseCase.endHost.ethg$o[0].channel ber 0
attr mutable ""
par UseCase.endHost.ethg$o[0].channel per 0
attr mutable ""
par UseCase.endHost.ethg$o[0].channel length 10m
attr unit m
par UseCase.gPTPAux.pppg$o[0].channel typename "\"inet.node.ethernet.Eth10G\""
par UseCase.gPTPAux.pppg$o[0].channel disabled false
attr mutable ""
par UseCase.gPTPAux.pppg$o[0].channel delay 5e-08s
attr mutable ""
attr unit s
par UseCase.gPTPAux.pppg$o[0].channel datarate 1e+10bps
attr mutable ""
attr unit bps
par UseCase.gPTPAux.pppg$o[0].channel ber 0
attr mutable ""
par UseCase.gPTPAux.pppg$o[0].channel per 0
attr mutable ""
par UseCase.gPTPAux.pppg$o[0].channel length 10m
attr unit m
par UseCase.upf.filterGate$o.channel typename "\"inet.node.ethernet.Eth10G\""
par UseCase.upf.filterGate$o.channel disabled false
attr mutable ""
par UseCase.upf.filterGate$o.channel delay 5e-08s
attr mutable ""
attr unit s
par UseCase.upf.filterGate$o.channel datarate 1e+10bps
attr mutable ""
attr unit bps
par UseCase.upf.filterGate$o.channel ber 0
attr mutable ""
par UseCase.upf.filterGate$o.channel per 0
attr mutable ""
par UseCase.upf.filterGate$o.channel length 10m
attr unit m
par UseCase.NSTT.ethg$o[0].channel typename "\"inet.node.ethernet.Eth10G\""
par UseCase.NSTT.ethg$o[0].channel disabled false
attr mutable ""
par UseCase.NSTT.ethg$o[0].channel delay 5e-08s
attr mutable ""
attr unit s
par UseCase.NSTT.ethg$o[0].channel datarate 1e+10bps
attr mutable ""
attr unit bps
par UseCase.NSTT.ethg$o[0].channel ber 0
attr mutable ""
par UseCase.NSTT.ethg$o[0].channel per 0
attr mutable ""
par UseCase.NSTT.ethg$o[0].channel length 10m
attr unit m
par UseCase.gPTPAux.ethg$o[0].channel typename "\"inet.node.ethernet.Eth10G\""
par UseCase.gPTPAux.ethg$o[0].channel disabled false
attr mutable ""
par UseCase.gPTPAux.ethg$o[0].channel delay 5e-08s
attr mutable ""
attr unit s
par UseCase.gPTPAux.ethg$o[0].channel datarate 1e+10bps
attr mutable ""
attr unit bps
par UseCase.gPTPAux.ethg$o[0].channel ber 0
attr mutable ""
par UseCase.gPTPAux.ethg$o[0].channel per 0
attr mutable ""
par UseCase.gPTPAux.ethg$o[0].channel length 10m
attr unit m
par UseCase.upf.ethg$o[0].channel typename "\"inet.node.ethernet.Eth10G\""
par UseCase.upf.ethg$o[0].channel disabled false
attr mutable ""
par UseCase.upf.ethg$o[0].channel delay 5e-08s
attr mutable ""
attr unit s
par UseCase.upf.ethg$o[0].channel datarate 1e+10bps
attr mutable ""
attr unit bps
par UseCase.upf.ethg$o[0].channel ber 0
attr mutable ""
par UseCase.upf.ethg$o[0].channel per 0
attr mutable ""
par UseCase.upf.ethg$o[0].channel length 10m
attr unit m
par UseCase.gNB.ethg$o.channel typename "\"inet.node.ethernet.Eth10G\""
par UseCase.gNB.ethg$o.channel disabled false
attr mutable ""
par UseCase.gNB.ethg$o.channel delay 5e-08s
attr mutable ""
attr unit s
par UseCase.gNB.ethg$o.channel datarate 1e+10bps
attr mutable ""
attr unit bps
par UseCase.gNB.ethg$o.channel ber 0
attr mutable ""
par UseCase.gNB.ethg$o.channel per 0
attr mutable ""
par UseCase.gNB.ethg$o.channel length 10m
attr unit m
par UseCase.ue.ethg$o[0].channel typename "\"inet.node.ethernet.Eth10G\""
par UseCase.ue.ethg$o[0].channel disabled false
attr mutable ""
par UseCase.ue.ethg$o[0].channel delay 5e-08s
attr mutable ""
attr unit s
par UseCase.ue.ethg$o[0].channel datarate 1e+10bps
attr mutable ""
attr unit bps
par UseCase.ue.ethg$o[0].channel ber 0
attr mutable ""
par UseCase.ue.ethg$o[0].channel per 0
attr mutable ""
par UseCase.ue.ethg$o[0].channel length 10m
attr unit m
par UseCase.DSTT.ethg$o[0].channel typename "\"inet.node.ethernet.Eth10G\""
par UseCase.DSTT.ethg$o[0].channel disabled false
attr mutable ""
par UseCase.DSTT.ethg$o[0].channel delay 5e-08s
attr mutable ""
attr unit s
par UseCase.DSTT.ethg$o[0].channel datarate 1e+10bps
attr mutable ""
attr unit bps
par UseCase.DSTT.ethg$o[0].channel ber 0
attr mutable ""
par UseCase.DSTT.ethg$o[0].channel per 0
attr mutable ""
par UseCase.DSTT.ethg$o[0].channel length 10m
attr unit m
par UseCase.DSTT.ethg$o[1].channel typename "\"inet.node.ethernet.Eth10G\""
par UseCase.DSTT.ethg$o[1].channel disabled false
attr mutable ""
par UseCase.DSTT.ethg$o[1].channel delay 5e-08s
attr mutable ""
attr unit s
par UseCase.DSTT.ethg$o[1].channel datarate 1e+10bps
attr mutable ""
attr unit bps
par UseCase.DSTT.ethg$o[1].channel ber 0
attr mutable ""
par UseCase.DSTT.ethg$o[1].channel per 0
attr mutable ""
par UseCase.DSTT.ethg$o[1].channel length 10m
attr unit m
par UseCase.switchTSN.ethg$o[0].channel typename "\"inet.node.ethernet.Eth10G\""
par UseCase.switchTSN.ethg$o[0].channel disabled false
attr mutable ""
par UseCase.switchTSN.ethg$o[0].channel delay 5e-08s
attr mutable ""
attr unit s
par UseCase.switchTSN.ethg$o[0].channel datarate 1e+10bps
attr mutable ""
attr unit bps
par UseCase.switchTSN.ethg$o[0].channel ber 0
attr mutable ""
par UseCase.switchTSN.ethg$o[0].channel per 0
attr mutable ""
par UseCase.switchTSN.ethg$o[0].channel length 10m
attr unit m
par UseCase.switchTSN.ethg$o[1].channel typename "\"inet.node.ethernet.Eth10G\""
par UseCase.switchTSN.ethg$o[1].channel disabled false
attr mutable ""
par UseCase.switchTSN.ethg$o[1].channel delay 5e-08s
attr mutable ""
attr unit s
par UseCase.switchTSN.ethg$o[1].channel datarate 1e+10bps
attr mutable ""
attr unit bps
par UseCase.switchTSN.ethg$o[1].channel ber 0
attr mutable ""
par UseCase.switchTSN.ethg$o[1].channel per 0
attr mutable ""
par UseCase.switchTSN.ethg$o[1].channel length 10m
attr unit m
par UseCase.receiverTSN.ethg$o[0].channel typename "\"inet.node.ethernet.Eth10G\""
par UseCase.receiverTSN.ethg$o[0].channel disabled false
attr mutable ""
par UseCase.receiverTSN.ethg$o[0].channel delay 5e-08s
attr mutable ""
attr unit s
par UseCase.receiverTSN.ethg$o[0].channel datarate 1e+10bps
attr mutable ""
attr unit bps
par UseCase.receiverTSN.ethg$o[0].channel ber 0
attr mutable ""
par UseCase.receiverTSN.ethg$o[0].channel per 0
attr mutable ""
par UseCase.receiverTSN.ethg$o[0].channel length 10m
attr unit m
par UseCase.NSTT.ethg$o[1].channel typename "\"inet.node.ethernet.Eth10G\""
par UseCase.NSTT.ethg$o[1].channel disabled false
attr mutable ""
par UseCase.NSTT.ethg$o[1].channel delay 5e-08s
attr mutable ""
attr unit s
par UseCase.NSTT.ethg$o[1].channel datarate 1e+10bps
attr mutable ""
attr unit bps
par UseCase.NSTT.ethg$o[1].channel ber 0
attr mutable ""
par UseCase.NSTT.ethg$o[1].channel per 0
attr mutable ""
par UseCase.NSTT.ethg$o[1].channel length 10m
attr unit m
par UseCase.switch5GC.ethg$o[1].channel typename "\"inet.node.ethernet.Eth10G\""
par UseCase.switch5GC.ethg$o[1].channel disabled false
attr mutable ""
par UseCase.switch5GC.ethg$o[1].channel delay 5e-08s
attr mutable ""
attr unit s
par UseCase.switch5GC.ethg$o[1].channel datarate 1e+10bps
attr mutable ""
attr unit bps
par UseCase.switch5GC.ethg$o[1].channel ber 0
attr mutable ""
par UseCase.switch5GC.ethg$o[1].channel per 0
attr mutable ""
par UseCase.switch5GC.ethg$o[1].channel length 10m
attr unit m
par UseCase.visualizer.sceneVisualizer typename "\"inet.visualizer.canvas.scene.SceneCanvasVisualizer\""
par UseCase.visualizer.sceneVisualizer visualizationTargetModule "\"^.^\""
par UseCase.visualizer.sceneVisualizer visualizationSubjectModule "\"^.^\""
par UseCase.visualizer.sceneVisualizer tags "\"\""
par UseCase.visualizer.sceneVisualizer physicalEnvironmentModule "\"physicalEnvironment\""
par UseCase.visualizer.sceneVisualizer networkNodeVisualizerModule "\"^.networkNodeVisualizer\""
par UseCase.visualizer.sceneVisualizer axisLength "nan m"
attr mutable ""
attr unit m
par UseCase.visualizer.sceneVisualizer animationSpeed 0
par UseCase.visualizer.sceneVisualizer sceneMinX "nan m"
attr unit m
par UseCase.visualizer.sceneVisualizer sceneMinY "nan m"
attr unit m
par UseCase.visualizer.sceneVisualizer sceneMinZ "nan m"
attr unit m
par UseCase.visualizer.sceneVisualizer sceneMaxX "nan m"
attr unit m
par UseCase.visualizer.sceneVisualizer sceneMaxY "nan m"
attr unit m
par UseCase.visualizer.sceneVisualizer sceneMaxZ "nan m"
attr unit m
par UseCase.visualizer.sceneVisualizer zIndex 0
par UseCase.visualizer.sceneVisualizer viewAngle "\"x right y down z out\""
attr mutable ""
par UseCase.visualizer.sceneVisualizer viewScale "\"1 1\""
attr mutable ""
par UseCase.visualizer.sceneVisualizer viewTranslation "\"0 0\""
attr mutable ""
par UseCase.visualizer.sceneVisualizer descriptionFigure "\"\""
par UseCase.visualizer.physicalEnvironmentVisualizer typename "\"inet.visualizer.canvas.environment.PhysicalEnvironmentCanvasVisualizer\""
par UseCase.visualizer.physicalEnvironmentVisualizer visualizationTargetModule "\"^.^\""
par UseCase.visualizer.physicalEnvironmentVisualizer visualizationSubjectModule "\"^.^\""
par UseCase.visualizer.physicalEnvironmentVisualizer tags "\"\""
par UseCase.visualizer.physicalEnvironmentVisualizer physicalEnvironmentModule "\"physicalEnvironment\""
par UseCase.visualizer.physicalEnvironmentVisualizer displayObjects true
par UseCase.visualizer.physicalEnvironmentVisualizer zIndex 0
par UseCase.visualizer.networkNodeVisualizer typename "\"inet.visualizer.canvas.scene.NetworkNodeCanvasVisualizer\""
par UseCase.visualizer.networkNodeVisualizer visualizationTargetModule "\"^.^\""
par UseCase.visualizer.networkNodeVisualizer visualizationSubjectModule "\"^.^\""
par UseCase.visualizer.networkNodeVisualizer tags "\"\""
par UseCase.visualizer.networkNodeVisualizer nodeFilter "\"*\""
attr mutable ""
par UseCase.visualizer.networkNodeVisualizer annotationSpacing 4
par UseCase.visualizer.networkNodeVisualizer placementPenalty 10
par UseCase.visualizer.networkNodeVisualizer zIndex 0
par UseCase.visualizer.networkConnectionVisualizer typename "\"inet.visualizer.canvas.scene.NetworkConnectionCanvasVisualizer\""
par UseCase.visualizer.networkConnectionVisualizer visualizationTargetModule "\"^.^\""
par UseCase.visualizer.networkConnectionVisualizer visualizationSubjectModule "\"^.^\""
par UseCase.visualizer.networkConnectionVisualizer tags "\"\""
par UseCase.visualizer.networkConnectionVisualizer displayNetworkConnections true
par UseCase.visualizer.networkConnectionVisualizer nodeFilter "\"\""
attr mutable ""
par UseCase.visualizer.networkConnectionVisualizer lineColor "\"black\""
par UseCase.visualizer.networkConnectionVisualizer lineStyle "\"solid\""
par UseCase.visualizer.networkConnectionVisualizer lineWidth 1
par UseCase.visualizer.networkConnectionVisualizer zIndex 0
par UseCase.visualizer.mobilityVisualizer typename "\"inet.visualizer.canvas.mobility.MobilityCanvasVisualizer\""
par UseCase.visualizer.mobilityVisualizer visualizationTargetModule "\"^.^\""
par UseCase.visualizer.mobilityVisualizer visualizationSubjectModule "\"^.^\""
par UseCase.visualizer.mobilityVisualizer tags "\"\""
par UseCase.visualizer.mobilityVisualizer networkNodeVisualizerModule "\"^.networkNodeVisualizer\""
par UseCase.visualizer.mobilityVisualizer displayMobility true
par UseCase.visualizer.mobilityVisualizer animationSpeed 0
par UseCase.visualizer.mobilityVisualizer moduleFilter "\"**.mobility\""
attr mutable ""
par UseCase.visualizer.mobilityVisualizer displayPositions false
par UseCase.visualizer.mobilityVisualizer positionCircleRadius 4
par UseCase.visualizer.mobilityVisualizer positionCircleLineWidth 1
par UseCase.visualizer.mobilityVisualizer positionCircleLineColor "\"dark\""
attr enum light,dark
par UseCase.visualizer.mobilityVisualizer positionCircleFillColor "\"dark\""
attr enum light,dark
par UseCase.visualizer.mobilityVisualizer displayOrientations false
par UseCase.visualizer.mobilityVisualizer orientationPieRadius 32
par UseCase.visualizer.mobilityVisualizer orientationPieSize 0.2
par UseCase.visualizer.mobilityVisualizer orientationPieOpacity 0.25
par UseCase.visualizer.mobilityVisualizer orientationLineColor "\"black\""
par UseCase.visualizer.mobilityVisualizer orientationLineStyle "\"solid\""
par UseCase.visualizer.mobilityVisualizer orientationLineWidth 1
par UseCase.visualizer.mobilityVisualizer orientationFillColor "\"blue\""
par UseCase.visualizer.mobilityVisualizer displayVelocities false
par UseCase.visualizer.mobilityVisualizer velocityArrowScale 1
par UseCase.visualizer.mobilityVisualizer velocityLineColor "\"black\""
par UseCase.visualizer.mobilityVisualizer velocityLineStyle "\"solid\""
par UseCase.visualizer.mobilityVisualizer velocityLineWidth 1
par UseCase.visualizer.mobilityVisualizer displayMovementTrails false
par UseCase.visualizer.mobilityVisualizer movementTrailLineColor "\"dark\""
attr enum light,dark
par UseCase.visualizer.mobilityVisualizer movementTrailLineStyle "\"solid\""
par UseCase.visualizer.mobilityVisualizer movementTrailLineWidth 1
par UseCase.visualizer.mobilityVisualizer trailLength 100
par UseCase.visualizer.mobilityVisualizer zIndex 0
par UseCase.visualizer.statisticVisualizer typename "\"inet.visualizer.canvas.common.StatisticCanvasVisualizer\""
par UseCase.visualizer.statisticVisualizer visualizationTargetModule "\"^.^\""
par UseCase.visualizer.statisticVisualizer visualizationSubjectModule "\"^.^\""
par UseCase.visualizer.statisticVisualizer tags "\"\""
par UseCase.visualizer.statisticVisualizer networkNodeVisualizerModule "\"^.networkNodeVisualizer\""
par UseCase.visualizer.statisticVisualizer displayStatistics true
par UseCase.visualizer.statisticVisualizer signalName "\"\""
par UseCase.visualizer.statisticVisualizer statisticName "\"\""
par UseCase.visualizer.statisticVisualizer statisticUnit "\"\""
par UseCase.visualizer.statisticVisualizer statisticExpression "\"\""
par UseCase.visualizer.statisticVisualizer sourceFilter "\"**\""
attr mutable ""
par UseCase.visualizer.statisticVisualizer format "\"%n: %v %u\""
attr mutable ""
par UseCase.visualizer.statisticVisualizer unit "\"\""
par UseCase.visualizer.statisticVisualizer font "\"<default>\""
par UseCase.visualizer.statisticVisualizer textColor "\"black\""
par UseCase.visualizer.statisticVisualizer backgroundColor "\"white\""
par UseCase.visualizer.statisticVisualizer opacity 1
par UseCase.visualizer.statisticVisualizer placementHint "\"top\""
par UseCase.visualizer.statisticVisualizer placementPriority 0
par UseCase.visualizer.statisticVisualizer zIndex 10
par UseCase.visualizer.statisticVisualizer propertyName "\"\""
par UseCase.visualizer.statisticVisualizer propertyIndex "\"\""
par UseCase.visualizer.infoVisualizer typename "\"inet.visualizer.canvas.common.InfoCanvasVisualizer\""
par UseCase.visualizer.infoVisualizer visualizationTargetModule "\"^.^\""
par UseCase.visualizer.infoVisualizer visualizationSubjectModule "\"^.^\""
par UseCase.visualizer.infoVisualizer tags "\"\""
par UseCase.visualizer.infoVisualizer networkNodeVisualizerModule "\"^.networkNodeVisualizer\""
par UseCase.visualizer.infoVisualizer displayInfos true
par UseCase.visualizer.infoVisualizer modules "\"\""
attr mutable ""
par UseCase.visualizer.infoVisualizer format "\"%t\""
attr mutable ""
par UseCase.visualizer.infoVisualizer font "\"<default>\""
par UseCase.visualizer.infoVisualizer textColor "\"black\""
par UseCase.visualizer.infoVisualizer backgroundColor "\"white\""
par UseCase.visualizer.infoVisualizer opacity 1
par UseCase.visualizer.infoVisualizer placementHint "\"top\""
par UseCase.visualizer.infoVisualizer placementPriority 0
par UseCase.visualizer.infoVisualizer zIndex 10
par UseCase.visualizer.energyStorageVisualizer typename "\"inet.visualizer.canvas.power.EnergyStorageCanvasVisualizer\""
par UseCase.visualizer.energyStorageVisualizer visualizationTargetModule "\"^.^\""
par UseCase.visualizer.energyStorageVisualizer visualizationSubjectModule "\"^.^\""
par UseCase.visualizer.energyStorageVisualizer tags "\"\""
par UseCase.visualizer.energyStorageVisualizer networkNodeVisualizerModule "\"^.networkNodeVisualizer\""
par UseCase.visualizer.energyStorageVisualizer displayEnergyStorages false
par UseCase.visualizer.energyStorageVisualizer energyStorageFilter "\"**\""
par UseCase.visualizer.energyStorageVisualizer color "\"green\""
par UseCase.visualizer.energyStorageVisualizer width 8
par UseCase.visualizer.energyStorageVisualizer height 24
par UseCase.visualizer.energyStorageVisualizer spacing 2
par UseCase.visualizer.energyStorageVisualizer placementHint "\"right\""
par UseCase.visualizer.energyStorageVisualizer placementPriority 0
par UseCase.visualizer.energyStorageVisualizer zIndex 10
par UseCase.visualizer.mediumVisualizer typename "\"inet.visualizer.canvas.physicallayer.MediumCanvasVisualizer\""
par UseCase.visualizer.mediumVisualizer visualizationTargetModule "\"^.^\""
par UseCase.visualizer.mediumVisualizer visualizationSubjectModule "\"^.^\""
par UseCase.visualizer.mediumVisualizer tags "\"\""
par UseCase.visualizer.mediumVisualizer mediumModule "\"radioMedium\""
par UseCase.visualizer.mediumVisualizer networkNodeVisualizerModule "\"^.networkNodeVisualizer\""
par UseCase.visualizer.mediumVisualizer nodeFilter "\"*\""
attr mutable ""
par UseCase.visualizer.mediumVisualizer interfaceFilter "\"*\""
attr mutable ""
par UseCase.visualizer.mediumVisualizer packetFilter "(omnetpp::cValueHolder)holder: \"*\""
attr mutable ""
par UseCase.visualizer.mediumVisualizer displaySignals false
par UseCase.visualizer.mediumVisualizer signalColor "\"dark\""
attr enum light,dark
par UseCase.visualizer.mediumVisualizer signalPropagationAnimationSpeed "nan "
attr mutable ""
par UseCase.visualizer.mediumVisualizer signalPropagationAnimationTime 1s
attr unit s
par UseCase.visualizer.mediumVisualizer signalPropagationAdditionalTime 0s
attr unit s
par UseCase.visualizer.mediumVisualizer signalTransmissionAnimationSpeed "nan "
attr mutable ""
par UseCase.visualizer.mediumVisualizer signalTransmissionAnimationTime 1s
attr unit s
par UseCase.visualizer.mediumVisualizer signalAnimationSpeedChangeTimeMode "\"realTime\""
attr enum realTime,animationTime,simulationTime
par UseCase.visualizer.mediumVisualizer signalAnimationSpeedChangeTime 1s
attr unit s
par UseCase.visualizer.mediumVisualizer displaySignalDepartures false
par UseCase.visualizer.mediumVisualizer signalDepartureImage "\"misc/signal_departure.png\""
par UseCase.visualizer.mediumVisualizer signalDeparturePlacementHint "\"topCenter\""
par UseCase.visualizer.mediumVisualizer signalDeparturePlacementPriority 1
par UseCase.visualizer.mediumVisualizer displaySignalArrivals false
par UseCase.visualizer.mediumVisualizer signalArrivalImage "\"misc/signal_arrival.png\""
par UseCase.visualizer.mediumVisualizer signalArrivalPlacementHint "\"topCenter\""
par UseCase.visualizer.mediumVisualizer signalArrivalPlacementPriority -1
par UseCase.visualizer.mediumVisualizer displayCommunicationRanges false
par UseCase.visualizer.mediumVisualizer communicationRangeLineColor "\"blue\""
par UseCase.visualizer.mediumVisualizer communicationRangeLineStyle "\"solid\""
par UseCase.visualizer.mediumVisualizer communicationRangeLineWidth 1
par UseCase.visualizer.mediumVisualizer displayInterferenceRanges false
par UseCase.visualizer.mediumVisualizer interferenceRangeLineColor "\"gray\""
par UseCase.visualizer.mediumVisualizer interferenceRangeLineStyle "\"solid\""
par UseCase.visualizer.mediumVisualizer interferenceRangeLineWidth 1
par UseCase.visualizer.mediumVisualizer autoPowerAxis true
par UseCase.visualizer.mediumVisualizer signalMinPower "inf dBmW"
attr unit dBmW
par UseCase.visualizer.mediumVisualizer signalMaxPower 0dBmW
attr unit dBmW
par UseCase.visualizer.mediumVisualizer signalMinPowerDensity "inf dBmWpMHz"
attr unit dBmWpMHz
par UseCase.visualizer.mediumVisualizer signalMaxPowerDensity "-inf dBmWpMHz"
attr unit dBmWpMHz
par UseCase.visualizer.mediumVisualizer autoTimeAxis true
par UseCase.visualizer.mediumVisualizer signalMinTime 0s
attr unit s
par UseCase.visualizer.mediumVisualizer signalMaxTime 0s
attr unit s
par UseCase.visualizer.mediumVisualizer autoFrequencyAxis true
par UseCase.visualizer.mediumVisualizer signalMinFrequency "inf Hz"
attr unit Hz
par UseCase.visualizer.mediumVisualizer signalMaxFrequency "-inf Hz"
attr unit Hz
par UseCase.visualizer.mediumVisualizer displayMainPowerDensityMap false
par UseCase.visualizer.mediumVisualizer mainPowerDensityMapPixmapDensity 1
par UseCase.visualizer.mediumVisualizer mainPowerDensityMapMinX 0
par UseCase.visualizer.mediumVisualizer mainPowerDensityMapMaxX "nan "
par UseCase.visualizer.mediumVisualizer mainPowerDensityMapMinY 0
par UseCase.visualizer.mediumVisualizer mainPowerDensityMapMaxY "nan "
par UseCase.visualizer.mediumVisualizer mainPowerDensityMapZ 0
par UseCase.visualizer.mediumVisualizer mainPowerDensityMapFigureXTickCount 3
par UseCase.visualizer.mediumVisualizer mainPowerDensityMapFigureYTickCount 3
par UseCase.visualizer.mediumVisualizer displayPowerDensityMaps false
par UseCase.visualizer.mediumVisualizer powerDensityMapMode "\"auto\""
attr enum total,signal,auto
par UseCase.visualizer.mediumVisualizer powerDensityMapPixelMode "\"mean\""
attr enum sample,partition,mean
par UseCase.visualizer.mediumVisualizer powerDensityMapApproximationSize 10
par UseCase.visualizer.mediumVisualizer powerDensityMapCenterFrequency "nan Hz"
attr mutable ""
attr unit Hz
par UseCase.visualizer.mediumVisualizer powerDensityMapBandwidth 0Hz
attr mutable ""
attr unit Hz
par UseCase.visualizer.mediumVisualizer powerDensityMapFigureWidth 200
par UseCase.visualizer.mediumVisualizer powerDensityMapFigureHeight 120
par UseCase.visualizer.mediumVisualizer powerDensityMapPixmapWidth 200
par UseCase.visualizer.mediumVisualizer powerDensityMapPixmapHeight 120
par UseCase.visualizer.mediumVisualizer powerDensityMapZ 0
par UseCase.visualizer.mediumVisualizer powerDensityMapFigureXTickCount 3
par UseCase.visualizer.mediumVisualizer powerDensityMapFigureYTickCount 3
par UseCase.visualizer.mediumVisualizer displaySpectrums false
par UseCase.visualizer.mediumVisualizer spectrumMode "\"auto\""
attr enum total,signal,auto
par UseCase.visualizer.mediumVisualizer spectrumFigureWidth 200
par UseCase.visualizer.mediumVisualizer spectrumFigureHeight 120
par UseCase.visualizer.mediumVisualizer spectrumFigureXTickCount 3
par UseCase.visualizer.mediumVisualizer spectrumFigureYTickCount 5
par UseCase.visualizer.mediumVisualizer spectrumFigureInterpolationSize 5
par UseCase.visualizer.mediumVisualizer spectrumPlacementHint "\"bottomCenter\""
par UseCase.visualizer.mediumVisualizer spectrumPlacementPriority -1
par UseCase.visualizer.mediumVisualizer displaySpectrograms false
par UseCase.visualizer.mediumVisualizer spectrogramMode "\"auto\""
attr enum total,signal,auto
par UseCase.visualizer.mediumVisualizer spectrogramPixelMode "\"mean\""
attr enum sample,partition,mean
par UseCase.visualizer.mediumVisualizer spectrogramFigureWidth 200
par UseCase.visualizer.mediumVisualizer spectrogramFigureHeight 120
par UseCase.visualizer.mediumVisualizer spectrogramPixmapWidth 200
par UseCase.visualizer.mediumVisualizer spectrogramPixmapHeight 120
par UseCase.visualizer.mediumVisualizer spectrogramFigureXTickCount 3
par UseCase.visualizer.mediumVisualizer spectrogramFigureYTickCount 5
par UseCase.visualizer.mediumVisualizer spectrogramPlacementHint "\"bottomCenter\""
par UseCase.visualizer.mediumVisualizer spectrogramPlacementPriority -1
par UseCase.visualizer.mediumVisualizer zIndex 0
par UseCase.visualizer.mediumVisualizer signalShape "\"ring\""
attr enum ring,sphere
par UseCase.visualizer.mediumVisualizer signalOpacity 0.5
par UseCase.visualizer.mediumVisualizer signalRingCount 20
par UseCase.visualizer.mediumVisualizer signalRingSize 50m
attr unit m
par UseCase.visualizer.mediumVisualizer signalFadingDistance 50m
attr unit m
par UseCase.visualizer.mediumVisualizer signalFadingFactor 1.2
par UseCase.visualizer.mediumVisualizer signalWaveCount 20
par UseCase.visualizer.mediumVisualizer signalWaveLength 50m
attr unit m
par UseCase.visualizer.mediumVisualizer signalWaveWidth 10m
attr unit m
par UseCase.visualizer.mediumVisualizer signalWaveFadingAnimationSpeedFactor 1
par UseCase.visualizer.mediumVisualizer displayCommunicationHeat false
par UseCase.visualizer.obstacleLossVisualizer typename "\"inet.visualizer.canvas.physicallayer.TracingObstacleLossCanvasVisualizer\""
par UseCase.visualizer.obstacleLossVisualizer visualizationTargetModule "\"^.^\""
par UseCase.visualizer.obstacleLossVisualizer visualizationSubjectModule "\"^.^\""
par UseCase.visualizer.obstacleLossVisualizer tags "\"\""
par UseCase.visualizer.obstacleLossVisualizer displayIntersections false
par UseCase.visualizer.obstacleLossVisualizer intersectionLineColor "\"red\""
par UseCase.visualizer.obstacleLossVisualizer intersectionLineStyle "\"solid\""
par UseCase.visualizer.obstacleLossVisualizer intersectionLineWidth 1
par UseCase.visualizer.obstacleLossVisualizer displayFaceNormalVectors false
par UseCase.visualizer.obstacleLossVisualizer faceNormalLineColor "\"grey\""
par UseCase.visualizer.obstacleLossVisualizer faceNormalLineStyle "\"solid\""
par UseCase.visualizer.obstacleLossVisualizer faceNormalLineWidth 1
par UseCase.visualizer.obstacleLossVisualizer fadeOutMode "\"realTime\""
attr enum realTime,animationTime,simulationTime
par UseCase.visualizer.obstacleLossVisualizer fadeOutTime 1s
attr unit s
par UseCase.visualizer.obstacleLossVisualizer fadeOutAnimationSpeed 0
par UseCase.visualizer.obstacleLossVisualizer zIndex 0
par UseCase.visualizer.packetDropVisualizer typename "\"inet.visualizer.canvas.common.PacketDropCanvasVisualizer\""
par UseCase.visualizer.packetDropVisualizer visualizationTargetModule "\"^.^\""
par UseCase.visualizer.packetDropVisualizer visualizationSubjectModule "\"^.^\""
par UseCase.visualizer.packetDropVisualizer tags "\"\""
par UseCase.visualizer.packetDropVisualizer displayPacketDrops false
par UseCase.visualizer.packetDropVisualizer nodeFilter "\"*\""
attr mutable ""
par UseCase.visualizer.packetDropVisualizer interfaceFilter "\"*\""
attr mutable ""
par UseCase.visualizer.packetDropVisualizer packetFilter "(omnetpp::cValueHolder)holder: \"*\""
attr mutable ""
par UseCase.visualizer.packetDropVisualizer detailsFilter "\"*\""
attr mutable ""
par UseCase.visualizer.packetDropVisualizer icon "\"msg/packet_s\""
par UseCase.visualizer.packetDropVisualizer iconTintAmount 1
par UseCase.visualizer.packetDropVisualizer iconTintColor "\"dark\""
par UseCase.visualizer.packetDropVisualizer labelFormat "\"%n\""
attr mutable ""
par UseCase.visualizer.packetDropVisualizer labelFont "\"<default>\""
par UseCase.visualizer.packetDropVisualizer labelColor "\"black\""
par UseCase.visualizer.packetDropVisualizer fadeOutMode "\"realTime\""
attr enum realTime,animationTime,simulationTime
par UseCase.visualizer.packetDropVisualizer fadeOutTime 1s
attr unit s
par UseCase.visualizer.packetDropVisualizer fadeOutAnimationSpeed 0
par UseCase.visualizer.packetDropVisualizer zIndex 10
par UseCase.visualizer.packetDropVisualizer dx 32
par UseCase.visualizer.packetDropVisualizer dy 64
par UseCase.visualizer.packetFlowVisualizer typename "\"inet.visualizer.canvas.flow.PacketFlowCanvasVisualizer\""
par UseCase.visualizer.packetFlowVisualizer visualizationTargetModule "\"^.^\""
par UseCase.visualizer.packetFlowVisualizer visualizationSubjectModule "\"^.^\""
par UseCase.visualizer.packetFlowVisualizer tags "\"\""
par UseCase.visualizer.packetFlowVisualizer displayRoutes false
par UseCase.visualizer.packetFlowVisualizer startPathSignal "\"packetFlowStarted\""
par UseCase.visualizer.packetFlowVisualizer extendPathSignal "\"packetReceivedFromLower\""
par UseCase.visualizer.packetFlowVisualizer endPathSignal "\"packetFlowEnded\""
par UseCase.visualizer.packetFlowVisualizer nodeFilter "\"*\""
attr mutable ""
par UseCase.visualizer.packetFlowVisualizer packetFilter "(omnetpp::cValueHolder)holder: \"*\""
attr mutable ""
par UseCase.visualizer.packetFlowVisualizer lineColor "\"dark\""
attr enum light,dark
par UseCase.visualizer.packetFlowVisualizer lineStyle "\"dashed\""
par UseCase.visualizer.packetFlowVisualizer lineWidth 3
par UseCase.visualizer.packetFlowVisualizer lineSmooth false
par UseCase.visualizer.packetFlowVisualizer lineShift 16
par UseCase.visualizer.packetFlowVisualizer lineShiftMode "\"normal\""
par UseCase.visualizer.packetFlowVisualizer lineContactSpacing 3
par UseCase.visualizer.packetFlowVisualizer lineContactMode "\"rectangular\""
attr enum circular,rectangular
par UseCase.visualizer.packetFlowVisualizer labelFormat "\"%L %p pk (%l)\""
par UseCase.visualizer.packetFlowVisualizer labelFont "\"<default>, 8px\""
par UseCase.visualizer.packetFlowVisualizer labelColor "\"\""
par UseCase.visualizer.packetFlowVisualizer fadeOutMode "\"realTime\""
attr enum realTime,animationTime,simulationTime
par UseCase.visualizer.packetFlowVisualizer fadeOutTime 0s
attr unit s
par UseCase.visualizer.packetFlowVisualizer fadeOutAnimationSpeed 0
par UseCase.visualizer.packetFlowVisualizer zIndex 4
par UseCase.visualizer.queueVisualizer typename "\"inet.visualizer.canvas.common.QueueCanvasVisualizer\""
par UseCase.visualizer.queueVisualizer visualizationTargetModule "\"^.^\""
par UseCase.visualizer.queueVisualizer visualizationSubjectModule "\"^.^\""
par UseCase.visualizer.queueVisualizer tags "\"\""
par UseCase.visualizer.queueVisualizer networkNodeVisualizerModule "\"^.networkNodeVisualizer\""
par UseCase.visualizer.queueVisualizer displayQueues false
par UseCase.visualizer.queueVisualizer queueFilter "\"**\""
par UseCase.visualizer.queueVisualizer color "\"blue\""
par UseCase.visualizer.queueVisualizer width 8
par UseCase.visualizer.queueVisualizer height 24
par UseCase.visualizer.queueVisualizer spacing 2
par UseCase.visualizer.queueVisualizer placementHint "\"right\""
par UseCase.visualizer.queueVisualizer placementPriority 0
par UseCase.visualizer.queueVisualizer zIndex 10
par UseCase.visualizer.gateScheduleVisualizer typename "\"inet.visualizer.canvas.common.GateScheduleCanvasVisualizer\""
par UseCase.visualizer.gateScheduleVisualizer visualizationTargetModule "\"^.^\""
par UseCase.visualizer.gateScheduleVisualizer visualizationSubjectModule "\"^.^\""
par UseCase.visualizer.gateScheduleVisualizer tags "\"\""
par UseCase.visualizer.gateScheduleVisualizer networkNodeVisualizerModule "\"^.networkNodeVisualizer\""
par UseCase.visualizer.gateScheduleVisualizer displayGateSchedules false
par UseCase.visualizer.gateScheduleVisualizer labelFormat "\"%i %D\""
par UseCase.visualizer.gateScheduleVisualizer gateFilter "\"**\""
par UseCase.visualizer.gateScheduleVisualizer width 100
par UseCase.visualizer.gateScheduleVisualizer height 8
par UseCase.visualizer.gateScheduleVisualizer spacing 2
par UseCase.visualizer.gateScheduleVisualizer placementHint "\"right\""
par UseCase.visualizer.gateScheduleVisualizer placementPriority 0
par UseCase.visualizer.gateScheduleVisualizer displayDuration 0s
attr mutable ""
attr unit s
par UseCase.visualizer.gateScheduleVisualizer currentTimePosition 50
par UseCase.visualizer.gateScheduleVisualizer zIndex 10
par UseCase.visualizer.radioVisualizer typename "\"inet.visualizer.canvas.physicallayer.RadioCanvasVisualizer\""
par UseCase.visualizer.radioVisualizer visualizationTargetModule "\"^.^\""
par UseCase.visualizer.radioVisualizer visualizationSubjectModule "\"^.^\""
par UseCase.visualizer.radioVisualizer tags "\"\""
par UseCase.visualizer.radioVisualizer networkNodeVisualizerModule "\"^.networkNodeVisualizer\""
par UseCase.visualizer.radioVisualizer displayRadios false
par UseCase.visualizer.radioVisualizer displayRadioMode true
par UseCase.visualizer.radioVisualizer displayReceptionState true
par UseCase.visualizer.radioVisualizer displayTransmissionState true
par UseCase.visualizer.radioVisualizer displayAntennaLobes false
par UseCase.visualizer.radioVisualizer radioFilter "\"**\""
attr mutable ""
par UseCase.visualizer.radioVisualizer radioModeImages "\"block/process_vs block/timer_vs block/wrx_vs block/wtx_vs block/wrxtx_vs block/cogwheel_vs\""
par UseCase.visualizer.radioVisualizer receptionStateImages "\"- - misc/receiving misc/receiving\""
par UseCase.visualizer.radioVisualizer transmissionStateImages "\"- - misc/transmitting\""
par UseCase.visualizer.radioVisualizer width 16
par UseCase.visualizer.radioVisualizer height 16
par UseCase.visualizer.radioVisualizer placementHint "\"bottomRight\""
par UseCase.visualizer.radioVisualizer placementPriority 0
par UseCase.visualizer.radioVisualizer antennaLobeNormalize false
par UseCase.visualizer.radioVisualizer antennaLobeRelativeLabels false
par UseCase.visualizer.radioVisualizer antennaLobePlaneGlobal true
par UseCase.visualizer.radioVisualizer antennaLobePlane "\"view\""
attr enum view,xy,xz,yz
par UseCase.visualizer.radioVisualizer antennaLobeMode "\"logarithmic\""
attr enum logarithmic,linear
par UseCase.visualizer.radioVisualizer antennaLobeLogarithmicBase 10
par UseCase.visualizer.radioVisualizer antennaLobeLogarithmicScale 100
par UseCase.visualizer.radioVisualizer antennaLobeRadius 100
par UseCase.visualizer.radioVisualizer antennaLobeStep 10deg
attr unit deg
par UseCase.visualizer.radioVisualizer antennaLobeOpacity 0.25
par UseCase.visualizer.radioVisualizer antennaLobeLineSmooth true
par UseCase.visualizer.radioVisualizer antennaLobeLineColor "\"black\""
par UseCase.visualizer.radioVisualizer antennaLobeLineStyle "\"solid\""
par UseCase.visualizer.radioVisualizer antennaLobeLineWidth 1
par UseCase.visualizer.radioVisualizer antennaLobeFillColor "\"white\""
par UseCase.visualizer.radioVisualizer zIndex 10
par UseCase.visualizer.physicalLinkVisualizer typename "\"inet.visualizer.canvas.physicallayer.PhysicalLinkCanvasVisualizer\""
par UseCase.visualizer.physicalLinkVisualizer visualizationTargetModule "\"^.^\""
par UseCase.visualizer.physicalLinkVisualizer visualizationSubjectModule "\"^.^\""
par UseCase.visualizer.physicalLinkVisualizer tags "\"\""
par UseCase.visualizer.physicalLinkVisualizer displayLinks false
par UseCase.visualizer.physicalLinkVisualizer activityLevel "\"service\""
attr enum service,peer,protocol
par UseCase.visualizer.physicalLinkVisualizer nodeFilter "\"*\""
attr mutable ""
par UseCase.visualizer.physicalLinkVisualizer interfaceFilter "\"*\""
attr mutable ""
par UseCase.visualizer.physicalLinkVisualizer packetFilter "(omnetpp::cValueHolder)holder: \"*\""
attr mutable ""
par UseCase.visualizer.physicalLinkVisualizer lineColor "\"olive\""
par UseCase.visualizer.physicalLinkVisualizer lineStyle "\"dotted\""
par UseCase.visualizer.physicalLinkVisualizer lineWidth 3
par UseCase.visualizer.physicalLinkVisualizer lineShift 16
par UseCase.visualizer.physicalLinkVisualizer lineShiftMode "\"normal\""
par UseCase.visualizer.physicalLinkVisualizer lineContactSpacing 3
par UseCase.visualizer.physicalLinkVisualizer lineContactMode "\"rectangular\""
attr enum circular,rectangular
par UseCase.visualizer.physicalLinkVisualizer labelFormat "\"%n\""
par UseCase.visualizer.physicalLinkVisualizer labelFont "\"<default>, 8px\""
par UseCase.visualizer.physicalLinkVisualizer labelColor "\"olive\""
par UseCase.visualizer.physicalLinkVisualizer fadeOutMode "\"realTime\""
attr enum realTime,animationTime,simulationTime
par UseCase.visualizer.physicalLinkVisualizer fadeOutTime 1s
attr unit s
par UseCase.visualizer.physicalLinkVisualizer fadeOutAnimationSpeed 0
par UseCase.visualizer.physicalLinkVisualizer holdAnimationTime 0s
attr unit s
par UseCase.visualizer.physicalLinkVisualizer zIndex 1
par UseCase.visualizer.interfaceTableVisualizer typename "\"inet.visualizer.canvas.linklayer.InterfaceTableCanvasVisualizer\""
par UseCase.visualizer.interfaceTableVisualizer visualizationTargetModule "\"^.^\""
par UseCase.visualizer.interfaceTableVisualizer visualizationSubjectModule "\"^.^\""
par UseCase.visualizer.interfaceTableVisualizer tags "\"\""
par UseCase.visualizer.interfaceTableVisualizer networkNodeVisualizerModule "\"^.networkNodeVisualizer\""
par UseCase.visualizer.interfaceTableVisualizer displayInterfaceTables false
par UseCase.visualizer.interfaceTableVisualizer displayWiredInterfacesAtConnections true
par UseCase.visualizer.interfaceTableVisualizer displayBackground false
par UseCase.visualizer.interfaceTableVisualizer nodeFilter "\"*\""
attr mutable ""
par UseCase.visualizer.interfaceTableVisualizer interfaceFilter "\"not(lo*)\""
attr mutable ""
par UseCase.visualizer.interfaceTableVisualizer format "\"%N %\\\\%a%/%l\""
attr mutable ""
par UseCase.visualizer.interfaceTableVisualizer placementHint "\"top\""
par UseCase.visualizer.interfaceTableVisualizer placementPriority 0
par UseCase.visualizer.interfaceTableVisualizer font "\"<default>\""
par UseCase.visualizer.interfaceTableVisualizer textColor "\"#005030\""
par UseCase.visualizer.interfaceTableVisualizer backgroundColor "\"white\""
par UseCase.visualizer.interfaceTableVisualizer opacity 1
par UseCase.visualizer.interfaceTableVisualizer zIndex 10
par UseCase.visualizer.dataLinkVisualizer typename "\"inet.visualizer.canvas.linklayer.DataLinkCanvasVisualizer\""
par UseCase.visualizer.dataLinkVisualizer visualizationTargetModule "\"^.^\""
par UseCase.visualizer.dataLinkVisualizer visualizationSubjectModule "\"^.^\""
par UseCase.visualizer.dataLinkVisualizer tags "\"\""
par UseCase.visualizer.dataLinkVisualizer displayLinks false
par UseCase.visualizer.dataLinkVisualizer activityLevel "\"service\""
attr enum service,peer,protocol
par UseCase.visualizer.dataLinkVisualizer nodeFilter "\"*\""
attr mutable ""
par UseCase.visualizer.dataLinkVisualizer interfaceFilter "\"*\""
attr mutable ""
par UseCase.visualizer.dataLinkVisualizer packetFilter "(omnetpp::cValueHolder)holder: \"*\""
attr mutable ""
par UseCase.visualizer.dataLinkVisualizer lineColor "\"darkcyan\""
par UseCase.visualizer.dataLinkVisualizer lineStyle "\"solid\""
par UseCase.visualizer.dataLinkVisualizer lineWidth 3
par UseCase.visualizer.dataLinkVisualizer lineShift 16
par UseCase.visualizer.dataLinkVisualizer lineShiftMode "\"normal\""
par UseCase.visualizer.dataLinkVisualizer lineContactSpacing 3
par UseCase.visualizer.dataLinkVisualizer lineContactMode "\"rectangular\""
attr enum circular,rectangular
par UseCase.visualizer.dataLinkVisualizer labelFormat "\"%n\""
par UseCase.visualizer.dataLinkVisualizer labelFont "\"<default>, 8px\""
par UseCase.visualizer.dataLinkVisualizer labelColor "\"darkcyan\""
par UseCase.visualizer.dataLinkVisualizer fadeOutMode "\"realTime\""
attr enum realTime,animationTime,simulationTime
par UseCase.visualizer.dataLinkVisualizer fadeOutTime 1s
attr unit s
par UseCase.visualizer.dataLinkVisualizer fadeOutAnimationSpeed 0
par UseCase.visualizer.dataLinkVisualizer holdAnimationTime 0s
attr unit s
par UseCase.visualizer.dataLinkVisualizer zIndex 2
par UseCase.visualizer.linkBreakVisualizer typename "\"inet.visualizer.canvas.linklayer.LinkBreakCanvasVisualizer\""
par UseCase.visualizer.linkBreakVisualizer visualizationTargetModule "\"^.^\""
par UseCase.visualizer.linkBreakVisualizer visualizationSubjectModule "\"^.^\""
par UseCase.visualizer.linkBreakVisualizer tags "\"\""
par UseCase.visualizer.linkBreakVisualizer displayLinkBreaks false
par UseCase.visualizer.linkBreakVisualizer nodeFilter "\"*\""
attr mutable ""
par UseCase.visualizer.linkBreakVisualizer interfaceFilter "\"*\""
attr mutable ""
par UseCase.visualizer.linkBreakVisualizer packetFilter "(omnetpp::cValueHolder)holder: \"*\""
attr mutable ""
par UseCase.visualizer.linkBreakVisualizer icon "\"status/stop\""
par UseCase.visualizer.linkBreakVisualizer iconTintAmount 0
par UseCase.visualizer.linkBreakVisualizer iconTintColor "\"\""
par UseCase.visualizer.linkBreakVisualizer fadeOutMode "\"realTime\""
attr enum realTime,animationTime,simulationTime
par UseCase.visualizer.linkBreakVisualizer fadeOutTime 1s
attr unit s
par UseCase.visualizer.linkBreakVisualizer fadeOutAnimationSpeed 0
par UseCase.visualizer.linkBreakVisualizer zIndex 2
par UseCase.visualizer.ieee80211Visualizer typename "\"inet.visualizer.canvas.linklayer.Ieee80211CanvasVisualizer\""
par UseCase.visualizer.ieee80211Visualizer visualizationTargetModule "\"^.^\""
par UseCase.visualizer.ieee80211Visualizer visualizationSubjectModule "\"^.^\""
par UseCase.visualizer.ieee80211Visualizer tags "\"\""
par UseCase.visualizer.ieee80211Visualizer networkNodeVisualizerModule "\"^.networkNodeVisualizer\""
par UseCase.visualizer.ieee80211Visualizer displayAssociations false
par UseCase.visualizer.ieee80211Visualizer nodeFilter "\"*\""
attr mutable ""
par UseCase.visualizer.ieee80211Visualizer interfaceFilter "\"*\""
attr mutable ""
par UseCase.visualizer.ieee80211Visualizer minPower -85dBm
attr unit dBm
par UseCase.visualizer.ieee80211Visualizer maxPower -50dBm
attr unit dBm
par UseCase.visualizer.ieee80211Visualizer icons "\"misc/signal_power_0 misc/signal_power_1 misc/signal_power_2 misc/signal_power_3\""
par UseCase.visualizer.ieee80211Visualizer iconColor "\"dark\""
attr enum light,dark
par UseCase.visualizer.ieee80211Visualizer labelFont "\"<default>\""
par UseCase.visualizer.ieee80211Visualizer labelColor "\"black\""
par UseCase.visualizer.ieee80211Visualizer placementHint "\"top\""
par UseCase.visualizer.ieee80211Visualizer placementPriority 0
par UseCase.visualizer.ieee80211Visualizer zIndex 2
par UseCase.visualizer.networkRouteVisualizer typename "\"inet.visualizer.canvas.networklayer.NetworkRouteCanvasVisualizer\""
par UseCase.visualizer.networkRouteVisualizer visualizationTargetModule "\"^.^\""
par UseCase.visualizer.networkRouteVisualizer visualizationSubjectModule "\"^.^\""
par UseCase.visualizer.networkRouteVisualizer tags "\"\""
par UseCase.visualizer.networkRouteVisualizer displayRoutes false
par UseCase.visualizer.networkRouteVisualizer startPathSignal "\"packetReceivedFromUpper\""
par UseCase.visualizer.networkRouteVisualizer extendPathSignal "\"packetReceivedFromLower\""
par UseCase.visualizer.networkRouteVisualizer endPathSignal "\"packetSentToUpper\""
par UseCase.visualizer.networkRouteVisualizer nodeFilter "\"*\""
attr mutable ""
par UseCase.visualizer.networkRouteVisualizer packetFilter "(omnetpp::cValueHolder)holder: \"*\""
attr mutable ""
par UseCase.visualizer.networkRouteVisualizer lineColor "\"dark\""
attr enum light,dark
par UseCase.visualizer.networkRouteVisualizer lineStyle "\"solid\""
par UseCase.visualizer.networkRouteVisualizer lineWidth 3
par UseCase.visualizer.networkRouteVisualizer lineSmooth false
par UseCase.visualizer.networkRouteVisualizer lineShift 16
par UseCase.visualizer.networkRouteVisualizer lineShiftMode "\"normal\""
par UseCase.visualizer.networkRouteVisualizer lineContactSpacing 3
par UseCase.visualizer.networkRouteVisualizer lineContactMode "\"rectangular\""
attr enum circular,rectangular
par UseCase.visualizer.networkRouteVisualizer labelFormat "\"%n\""
par UseCase.visualizer.networkRouteVisualizer labelFont "\"<default>, 8px\""
par UseCase.visualizer.networkRouteVisualizer labelColor "\"\""
par UseCase.visualizer.networkRouteVisualizer fadeOutMode "\"realTime\""
attr enum realTime,animationTime,simulationTime
par UseCase.visualizer.networkRouteVisualizer fadeOutTime 1s
attr unit s
par UseCase.visualizer.networkRouteVisualizer fadeOutAnimationSpeed 0
par UseCase.visualizer.networkRouteVisualizer zIndex 3
par UseCase.visualizer.routingTableVisualizer typename "\"inet.visualizer.canvas.networklayer.RoutingTableCanvasVisualizer\""
par UseCase.visualizer.routingTableVisualizer visualizationTargetModule "\"^.^\""
par UseCase.visualizer.routingTableVisualizer visualizationSubjectModule "\"^.^\""
par UseCase.visualizer.routingTableVisualizer tags "\"\""
par UseCase.visualizer.routingTableVisualizer displayRoutingTables false
par UseCase.visualizer.routingTableVisualizer displayRoutesIndividually true
par UseCase.visualizer.routingTableVisualizer displayLabels true
par UseCase.visualizer.routingTableVisualizer destinationFilter "\"*\""
attr mutable ""
par UseCase.visualizer.routingTableVisualizer nodeFilter "\"*\""
attr mutable ""
par UseCase.visualizer.routingTableVisualizer lineColor "\"black\""
par UseCase.visualizer.routingTableVisualizer lineStyle "\"solid\""
par UseCase.visualizer.routingTableVisualizer lineWidth 2
par UseCase.visualizer.routingTableVisualizer lineShift 16
par UseCase.visualizer.routingTableVisualizer lineShiftMode "\"normal\""
par UseCase.visualizer.routingTableVisualizer lineContactSpacing 3
par UseCase.visualizer.routingTableVisualizer lineContactMode "\"rectangular\""
attr enum circular,rectangular
par UseCase.visualizer.routingTableVisualizer labelFormat "\"%d/%m -> %g (%n)\""
attr mutable ""
par UseCase.visualizer.routingTableVisualizer labelFont "\"<default>, 8px\""
par UseCase.visualizer.routingTableVisualizer labelColor "\"black\""
par UseCase.visualizer.routingTableVisualizer zIndex 0
par UseCase.visualizer.transportRouteVisualizer typename "\"inet.visualizer.canvas.transportlayer.TransportRouteCanvasVisualizer\""
par UseCase.visualizer.transportRouteVisualizer visualizationTargetModule "\"^.^\""
par UseCase.visualizer.transportRouteVisualizer visualizationSubjectModule "\"^.^\""
par UseCase.visualizer.transportRouteVisualizer tags "\"\""
par UseCase.visualizer.transportRouteVisualizer displayRoutes false
par UseCase.visualizer.transportRouteVisualizer startPathSignal "\"packetReceivedFromUpper\""
par UseCase.visualizer.transportRouteVisualizer extendPathSignal "\"packetReceivedFromLower\""
par UseCase.visualizer.transportRouteVisualizer endPathSignal "\"packetSentToUpper\""
par UseCase.visualizer.transportRouteVisualizer nodeFilter "\"*\""
attr mutable ""
par UseCase.visualizer.transportRouteVisualizer packetFilter "(omnetpp::cValueHolder)holder: \"*\""
attr mutable ""
par UseCase.visualizer.transportRouteVisualizer lineColor "\"dark\""
attr enum light,dark
par UseCase.visualizer.transportRouteVisualizer lineStyle "\"solid\""
par UseCase.visualizer.transportRouteVisualizer lineWidth 3
par UseCase.visualizer.transportRouteVisualizer lineSmooth false
par UseCase.visualizer.transportRouteVisualizer lineShift 16
par UseCase.visualizer.transportRouteVisualizer lineShiftMode "\"normal\""
par UseCase.visualizer.transportRouteVisualizer lineContactSpacing 3
par UseCase.visualizer.transportRouteVisualizer lineContactMode "\"rectangular\""
attr enum circular,rectangular
par UseCase.visualizer.transportRouteVisualizer labelFormat "\"%n\""
par UseCase.visualizer.transportRouteVisualizer labelFont "\"<default>, 8px\""
par UseCase.visualizer.transportRouteVisualizer labelColor "\"\""
par UseCase.visualizer.transportRouteVisualizer fadeOutMode "\"realTime\""
attr enum realTime,animationTime,simulationTime
par UseCase.visualizer.transportRouteVisualizer fadeOutTime 1s
attr unit s
par UseCase.visualizer.transportRouteVisualizer fadeOutAnimationSpeed 0
par UseCase.visualizer.transportRouteVisualizer zIndex 4
par UseCase.visualizer.transportConnectionVisualizer typename "\"inet.visualizer.canvas.transportlayer.TransportConnectionCanvasVisualizer\""
par UseCase.visualizer.transportConnectionVisualizer visualizationTargetModule "\"^.^\""
par UseCase.visualizer.transportConnectionVisualizer visualizationSubjectModule "\"^.^\""
par UseCase.visualizer.transportConnectionVisualizer tags "\"\""
par UseCase.visualizer.transportConnectionVisualizer networkNodeVisualizerModule "\"^.networkNodeVisualizer\""
par UseCase.visualizer.transportConnectionVisualizer displayTransportConnections false
par UseCase.visualizer.transportConnectionVisualizer sourceNodeFilter "\"*\""
attr mutable ""
par UseCase.visualizer.transportConnectionVisualizer sourcePortFilter "\"*\""
attr mutable ""
par UseCase.visualizer.transportConnectionVisualizer destinationNodeFilter "\"*\""
attr mutable ""
par UseCase.visualizer.transportConnectionVisualizer destinationPortFilter "\"*\""
attr mutable ""
par UseCase.visualizer.transportConnectionVisualizer icon "\"misc/marker_s\""
par UseCase.visualizer.transportConnectionVisualizer iconColor "\"dark\""
attr enum light,dark
par UseCase.visualizer.transportConnectionVisualizer labelFont "\"<default>\""
par UseCase.visualizer.transportConnectionVisualizer labelColor "\"black\""
par UseCase.visualizer.transportConnectionVisualizer placementHint "\"top\""
par UseCase.visualizer.transportConnectionVisualizer placementPriority 0
par UseCase.visualizer.transportConnectionVisualizer zIndex 4
par UseCase.visualizer.failureProtectionConfigurationVisualizer typename "\"inet.visualizer.canvas.configurator.FailureProtectionConfigurationCanvasVisualizer\""
par UseCase.visualizer.failureProtectionConfigurationVisualizer visualizationTargetModule "\"^.^\""
par UseCase.visualizer.failureProtectionConfigurationVisualizer visualizationSubjectModule "\"^.^\""
par UseCase.visualizer.failureProtectionConfigurationVisualizer tags "\"\""
par UseCase.visualizer.failureProtectionConfigurationVisualizer displayTrees false
par UseCase.visualizer.failureProtectionConfigurationVisualizer lineColor "\"dark\""
attr enum light,dark
par UseCase.visualizer.failureProtectionConfigurationVisualizer lineStyle "\"solid\""
par UseCase.visualizer.failureProtectionConfigurationVisualizer lineWidth 3
par UseCase.visualizer.failureProtectionConfigurationVisualizer lineSmooth false
par UseCase.visualizer.failureProtectionConfigurationVisualizer lineShift 16
par UseCase.visualizer.failureProtectionConfigurationVisualizer lineShiftMode "\"normal\""
par UseCase.visualizer.failureProtectionConfigurationVisualizer lineContactSpacing 3
par UseCase.visualizer.failureProtectionConfigurationVisualizer lineContactMode "\"rectangular\""
attr enum circular,rectangular
par UseCase.visualizer.failureProtectionConfigurationVisualizer failureProtectionConfiguratorModule "\"failureProtectionConfigurator\""
par UseCase.visualizer.failureProtectionConfigurationVisualizer streamFilter "\"*\""
par UseCase.visualizer.failureProtectionConfigurationVisualizer zIndex 3
par UseCase.visualizer.streamRedundancyConfigurationVisualizer typename "\"inet.visualizer.canvas.configurator.StreamRedundancyConfigurationCanvasVisualizer\""
par UseCase.visualizer.streamRedundancyConfigurationVisualizer visualizationTargetModule "\"^.^\""
par UseCase.visualizer.streamRedundancyConfigurationVisualizer visualizationSubjectModule "\"^.^\""
par UseCase.visualizer.streamRedundancyConfigurationVisualizer tags "\"\""
par UseCase.visualizer.streamRedundancyConfigurationVisualizer displayTrees false
par UseCase.visualizer.streamRedundancyConfigurationVisualizer lineColor "\"dark\""
attr enum light,dark
par UseCase.visualizer.streamRedundancyConfigurationVisualizer lineStyle "\"solid\""
par UseCase.visualizer.streamRedundancyConfigurationVisualizer lineWidth 3
par UseCase.visualizer.streamRedundancyConfigurationVisualizer lineSmooth false
par UseCase.visualizer.streamRedundancyConfigurationVisualizer lineShift 16
par UseCase.visualizer.streamRedundancyConfigurationVisualizer lineShiftMode "\"normal\""
par UseCase.visualizer.streamRedundancyConfigurationVisualizer lineContactSpacing 3
par UseCase.visualizer.streamRedundancyConfigurationVisualizer lineContactMode "\"rectangular\""
attr enum circular,rectangular
par UseCase.visualizer.streamRedundancyConfigurationVisualizer streamRedundancyConfiguratorModule "\"streamRedundancyConfigurator\""
par UseCase.visualizer.streamRedundancyConfigurationVisualizer streamFilter "\"*\""
par UseCase.visualizer.streamRedundancyConfigurationVisualizer zIndex 3
par UseCase.visualizer typename "\"inet.visualizer.canvas.integrated.IntegratedCanvasVisualizer\""
par UseCase.configurator typename "\"inet.networklayer.configurator.ipv4.Ipv4NetworkConfigurator\""
par UseCase.configurator minLinkWeight 0.001
par UseCase.configurator configureIsolatedNetworksSeparatly false
par UseCase.configurator config "<config>...</config> at content:1"
par UseCase.configurator assignAddresses true
par UseCase.configurator assignUniqueAddresses true
par UseCase.configurator assignDisjunctSubnetAddresses true
par UseCase.configurator addStaticRoutes true
par UseCase.configurator addDefaultRoutes true
par UseCase.configurator addSubnetRoutes true
par UseCase.configurator addDirectRoutes true
par UseCase.configurator optimizeRoutes true
par UseCase.configurator dumpTopology false
par UseCase.configurator dumpLinks false
par UseCase.configurator dumpAddresses false
par UseCase.configurator dumpRoutes false
par UseCase.configurator dumpConfig "\"\""
par UseCase.channelControl typename "\"simu5g.world.radio.LteChannelControl\""
par UseCase.channelControl coreDebug false
par UseCase.channelControl pMax 20mW
attr unit mW
par UseCase.channelControl sat -110dBm
attr unit dBm
par UseCase.channelControl alpha 2
par UseCase.channelControl carrierFrequency 2.4e+09Hz
attr unit Hz
par UseCase.channelControl numChannels 1
par UseCase.channelControl propagationModel "\"FreeSpaceModel\""
attr enum FreeSpaceModel,TwoRayGroundModel,RiceModel,RayleighModel,NakagamiModel,LogNormalShadowingModel
par UseCase.binder typename "\"simu5g.common.binder.Binder\""
par UseCase.binder blerShift 0
par UseCase.binder maxDataRatePerRb 1.16Mbps
attr unit Mbps
par UseCase.binder printTrafficGeneratorConfig false
par UseCase.carrierAggregation.componentCarrier[0] typename "\"simu5g.common.carrierAggregation.ComponentCarrier\""
par UseCase.carrierAggregation.componentCarrier[0] carrierFrequency 2GHz
attr unit GHz
par UseCase.carrierAggregation.componentCarrier[0] numBands 6
par UseCase.carrierAggregation.componentCarrier[0] numerologyIndex 0
par UseCase.carrierAggregation.componentCarrier[0] useTdd false
par UseCase.carrierAggregation.componentCarrier[0] tddNumSymbolsDl 7
par UseCase.carrierAggregation.componentCarrier[0] tddNumSymbolsUl 7
par UseCase.carrierAggregation typename "\"simu5g.common.carrierAggregation.CarrierAggregation\""
par UseCase.carrierAggregation numComponentCarriers 1
par UseCase.upf.ethg$i[0].channel typename "\"ned.IdealChannel\""
par UseCase.upf.eth[0].phys$o.channel typename "\"ned.IdealChannel\""
par UseCase.upf.interfaceTable typename "\"inet.networklayer.common.InterfaceTable\""
par UseCase.upf.interfaceTable displayAddresses false
par UseCase.upf.cb typename "\"inet.common.MessageDispatcher\""
par UseCase.upf.cb displayStringTextFormat "\"processed %p pk (%l)\""
par UseCase.upf.cb forwardServiceRegistration true
par UseCase.upf.cb forwardProtocolRegistration true
par UseCase.upf.bl typename "\"inet.common.MessageDispatcher\""
par UseCase.upf.bl displayStringTextFormat "\"processed %p pk (%l)\""
par UseCase.upf.bl forwardServiceRegistration true
par UseCase.upf.bl forwardProtocolRegistration true
par UseCase.upf.ethernet typename "\"inet.linklayer.ethernet.basic.EthernetEncapsulation\""
par UseCase.upf.ethernet registerProtocol true
par UseCase.upf.ethernet interfaceTableModule "\"UseCase.upf.interfaceTable\""
par UseCase.upf.ethernet fcsMode "\"declared\""
attr enum declared,computed
par UseCase.upf.ethernet stopOperationExtraTime -1s
attr unit s
par UseCase.upf.ethernet stopOperationTimeout 2s
attr unit s
scalar UseCase.upf.ethernet pauseSent:count 0
attr recordingmode count
attr title "pause sent, count"
scalar UseCase.upf.ethernet pauseSent:sum 0
attr recordingmode sum
attr title "pause sent, sum"
scalar UseCase.upf.ethernet decapPk:count 1
attr interpolationmode none
attr recordingmode count
attr source decapPk
attr title "packets decapsulated, count"
scalar UseCase.upf.ethernet decapPk:sum(packetBytes) 96
attr interpolationmode none
attr recordingmode sum(packetBytes)
attr source decapPk
attr title "packets decapsulated, sum(packetBytes)"
scalar UseCase.upf.ethernet encapPk:count 0
attr interpolationmode none
attr recordingmode count
attr source encapPk
attr title "packets encapsulated, count"
scalar UseCase.upf.ethernet encapPk:sum(packetBytes) 0
attr interpolationmode none
attr recordingmode sum(packetBytes)
attr source encapPk
attr title "packets encapsulated, sum(packetBytes)"
par UseCase.upf.li typename "\"inet.common.MessageDispatcher\""
par UseCase.upf.li displayStringTextFormat "\"processed %p pk (%l)\""
par UseCase.upf.li forwardServiceRegistration true
par UseCase.upf.li forwardProtocolRegistration true
par UseCase.upf.lo[0].upperLayerIn.channel typename "\"ned.IdealChannel\""
par UseCase.upf.lo[0].lo.upperLayerOut.channel typename "\"ned.IdealChannel\""
par UseCase.upf.lo[0].lo typename "\"inet.linklayer.loopback.Loopback\""
par UseCase.upf.lo[0].lo interfaceTableModule "\"UseCase.upf.interfaceTable\""
par UseCase.upf.lo[0].lo mtu 4470B
attr unit B
scalar UseCase.upf.lo[0].lo rcvdPkFromHl:count 0
attr interpolationmode none
attr recordingmode count
attr source packetReceivedFromUpper
attr title "packets received from higher layer, count"
scalar UseCase.upf.lo[0].lo rcvdPkFromHl:sum(packetBytes) 0
attr interpolationmode none
attr recordingmode sum(packetBytes)
attr source packetReceivedFromUpper
attr title "packets received from higher layer, sum(packetBytes)"
scalar UseCase.upf.lo[0].lo passedUpPk:count 0
attr interpolationmode none
attr recordingmode count
attr source packetSentToUpper
attr title "packets passed to higher layer, count"
scalar UseCase.upf.lo[0].lo passedUpPk:sum(packetBytes) 0
attr interpolationmode none
attr recordingmode sum(packetBytes)
attr source packetSentToUpper
attr title "packets passed to higher layer, sum(packetBytes)"
par UseCase.upf.lo[0] typename "\"inet.linklayer.loopback.LoopbackInterface\""
par UseCase.upf.lo[0] displayStringTextFormat "\"%a (%i)\\n%m\""
par UseCase.upf.lo[0] recordPcap false
par UseCase.upf.lo[0] numPcapRecorders 0
par UseCase.upf.lo[0] interfaceTableModule "\"UseCase.upf.interfaceTable\""
scalar UseCase.upf.lo[0] packetDropInterfaceDown:count 0
attr interpolationmode none
attr recordingmode count
attr source packetDropReasonIsInterfaceDown(packetDropped)
attr title "packet drops: interface down, count"
scalar UseCase.upf.lo[0] packetDropInterfaceDown:sum(packetBytes) 0
attr interpolationmode none
attr recordingmode sum(packetBytes)
attr source packetDropReasonIsInterfaceDown(packetDropped)
attr title "packet drops: interface down, sum(packetBytes)"
scalar UseCase.upf.lo[0] packetDropNoCarrier:count 0
attr interpolationmode none
attr recordingmode count
attr source packetDropReasonIsNoCarrier(packetDropped)
attr title "packet drops: no carrier, count"
scalar UseCase.upf.lo[0] packetDropNoCarrier:sum(packetBytes) 0
attr interpolationmode none
attr recordingmode sum(packetBytes)
attr source packetDropReasonIsNoCarrier(packetDropped)
attr title "packet drops: no carrier, sum(packetBytes)"
par UseCase.upf.eth[0].mac.phys$o.channel typename "\"ned.IdealChannel\""
par UseCase.upf.eth[0].phys$i.channel typename "\"ned.IdealChannel\""
par UseCase.upf.eth[0].upperLayerIn.channel typename "\"ned.IdealChannel\""
par UseCase.upf.eth[0].mac.upperLayerOut.channel typename "\"ned.IdealChannel\""
par UseCase.upf.eth[0].queue typename "\"inet.linklayer.ethernet.common.EthernetQueue\""
par UseCase.upf.eth[0].queue displayStringTextFormat "\"contains %p pk (%l) pushed %u\\npulled %o removed %r dropped %d\""
par UseCase.upf.eth[0].queue packetCapacity 1000
par UseCase.upf.eth[0].queue dataCapacity -1b
attr unit b
par UseCase.upf.eth[0].queue dropperClass "\"inet::queueing::PacketAtCollectionEndDropper\""
par UseCase.upf.eth[0].queue comparatorClass "\"inet::EthernetFrameTypeComparator\""
par UseCase.upf.eth[0].queue bufferModule "\"\""
scalar UseCase.upf.eth[0].queue queueLength:last 0
attr autoWarmupFilter false
attr interpolationmode sample-hold
attr recordingmode last
attr source "warmup(atomic(constant0(packetPushEnded) + count(packetPushStarted) - count(packetPulled) - count(packetRemoved) - count(packetDropped)))"
attr title "queue length, last"
attr unit pk
scalar UseCase.upf.eth[0].queue queueLength:max 0
attr autoWarmupFilter false
attr interpolationmode sample-hold
attr recordingmode max
attr source "warmup(atomic(constant0(packetPushEnded) + count(packetPushStarted) - count(packetPulled) - count(packetRemoved) - count(packetDropped)))"
attr title "queue length, max"
attr unit pk
scalar UseCase.upf.eth[0].queue queueLength:timeavg 0
attr autoWarmupFilter false
attr interpolationmode sample-hold
attr recordingmode timeavg
attr source "warmup(atomic(constant0(packetPushEnded) + count(packetPushStarted) - count(packetPulled) - count(packetRemoved) - count(packetDropped)))"
attr title "queue length, timeavg"
attr unit pk
scalar UseCase.upf.eth[0].queue queueBitLength:last 0
attr autoWarmupFilter false
attr interpolationmode sample-hold
attr recordingmode last
attr source "warmup(atomic(constant0(packetPushEnded) + sum(packetLength(packetPushStarted)) - sum(packetLength(packetPulled)) - sum(packetLength(packetRemoved)) - sum(packetLength(packetDropped))))"
attr title "queue bit length, last"
attr unit b
scalar UseCase.upf.eth[0].queue queueBitLength:max 0
attr autoWarmupFilter false
attr interpolationmode sample-hold
attr recordingmode max
attr source "warmup(atomic(constant0(packetPushEnded) + sum(packetLength(packetPushStarted)) - sum(packetLength(packetPulled)) - sum(packetLength(packetRemoved)) - sum(packetLength(packetDropped))))"
attr title "queue bit length, max"
attr unit b
scalar UseCase.upf.eth[0].queue queueBitLength:timeavg 0
attr autoWarmupFilter false
attr interpolationmode sample-hold
attr recordingmode timeavg
attr source "warmup(atomic(constant0(packetPushEnded) + sum(packetLength(packetPushStarted)) - sum(packetLength(packetPulled)) - sum(packetLength(packetRemoved)) - sum(packetLength(packetDropped))))"
attr title "queue bit length, timeavg"
attr unit b
statistic UseCase.upf.eth[0].queue queueingTime:histogram
field count 0
field mean -nan
field stddev nan
field min nan
field max nan
field sum 0
field sqrsum 0
attr interpolationmode none
attr recordingmode histogram
attr source queueingTime(packetPulled)
attr title "queueing times"
attr unit s
bin	-inf	0
bin	0	0
bin	1	0
scalar UseCase.upf.eth[0].queue outgoingPackets:count 0
attr recordingmode count
attr source packetPulled
attr title "outgoing packets, count"
attr unit pk
scalar UseCase.upf.eth[0].queue outgoingPacketLengths:sum 0
attr interpolationmode none
attr recordingmode sum
attr source packetLength(packetPulled)
attr title "outgoing packet lengths, sum"
attr unit b
statistic UseCase.upf.eth[0].queue outgoingPacketLengths:histogram
field count 0
field mean -nan
field stddev nan
field min nan
field max nan
field sum 0
field sqrsum 0
attr interpolationmode none
attr recordingmode histogram
attr source packetLength(packetPulled)
attr title "outgoing packet lengths"
attr unit b
bin	-inf	0
bin	0	0
bin	1	0
statistic UseCase.upf.eth[0].queue flowQueueingTime:histogram
field count 0
field mean -nan
field stddev nan
field min nan
field max nan
field sum 0
field sqrsum 0
attr interpolationmode none
attr recordingmode histogram
attr source queueingTime(demuxFlow(packetPulled))
attr title "flow queueing times"
attr unit s
bin	-inf	0
bin	0	0
bin	1	0
scalar UseCase.upf.eth[0].queue incomingPackets:count 0
attr recordingmode count
attr source packetPushStarted
attr title "incoming packets, count"
attr unit pk
scalar UseCase.upf.eth[0].queue incomingPacketLengths:sum 0
attr interpolationmode none
attr recordingmode sum
attr source packetLength(packetPushStarted)
attr title "incoming packet lengths, sum"
attr unit b
statistic UseCase.upf.eth[0].queue incomingPacketLengths:histogram
field count 0
field mean -nan
field stddev nan
field min nan
field max nan
field sum 0
field sqrsum 0
attr interpolationmode none
attr recordingmode histogram
attr source packetLength(packetPushStarted)
attr title "incoming packet lengths"
attr unit b
bin	-inf	0
bin	0	0
bin	1	0
scalar UseCase.upf.eth[0].queue droppedPacketsQueueOverflow:count 0
attr interpolationmode none
attr recordingmode count
attr source packetDropReasonIsQueueOverflow(packetDropped)
attr title "dropped packets: queue overflow, count"
attr unit pk
scalar UseCase.upf.eth[0].queue droppedPacketLengthsQueueOverflow:sum 0
attr interpolationmode none
attr recordingmode sum
attr source packetLength(packetDropReasonIsQueueOverflow(packetDropped))
attr title "dropped packet lengths: queue overflow, sum"
attr unit b
par UseCase.upf.eth[0].mac typename "\"inet.linklayer.ethernet.basic.EthernetMac\""
par UseCase.upf.eth[0].mac interfaceTableModule "\"UseCase.upf.interfaceTable\""
par UseCase.upf.eth[0].mac displayStringTextFormat "\"rate: %b\\nsent: %s, rcvd: %r\\nqueue: %q, drop: %d\""
par UseCase.upf.eth[0].mac sendRawBytes false
par UseCase.upf.eth[0].mac promiscuous false
par UseCase.upf.eth[0].mac duplexMode true
par UseCase.upf.eth[0].mac mtu 1500B
attr unit B
par UseCase.upf.eth[0].mac fcsMode "\"declared\""
attr enum declared,computed
par UseCase.upf.eth[0].mac stopOperationExtraTime -1s
attr unit s
par UseCase.upf.eth[0].mac stopOperationTimeout 2s
attr unit s
scalar UseCase.upf.eth[0].mac "simulated time" 0.0160004856
scalar UseCase.upf.eth[0].mac full-duplex 1
scalar UseCase.upf.eth[0].mac "frames/sec sent" 0
scalar UseCase.upf.eth[0].mac "frames/sec rcvd" 62.498103182568
scalar UseCase.upf.eth[0].mac "bits/sec sent" 0
scalar UseCase.upf.eth[0].mac "bits/sec rcvd" 56998.270102502
scalar UseCase.upf.eth[0].mac "rx channel idle (%)" 99.999390018513
scalar UseCase.upf.eth[0].mac "rx channel utilization (%)" 0.00060998148706187
scalar UseCase.upf.eth[0].mac rxPausePkUnits:count 0
attr interpolationmode none
attr recordingmode count
attr title "pause units received, count"
scalar UseCase.upf.eth[0].mac rxPausePkUnits:sum 0
attr interpolationmode none
attr recordingmode sum
attr title "pause units received, sum"
scalar UseCase.upf.eth[0].mac txPausePkUnits:count 0
attr interpolationmode none
attr recordingmode count
attr title "pause units sent, count"
scalar UseCase.upf.eth[0].mac txPausePkUnits:sum 0
attr interpolationmode none
attr recordingmode sum
attr title "pause units sent, sum"
scalar UseCase.upf.eth[0].mac rxPkOk:count 1
attr interpolationmode none
attr recordingmode count
attr source rxPkOk
attr title "packets received OK, count"
scalar UseCase.upf.eth[0].mac rxPkOk:sum(packetBytes) 114
attr interpolationmode none
attr recordingmode sum(packetBytes)
attr source rxPkOk
attr title "packets received OK, sum(packetBytes)"
scalar UseCase.upf.eth[0].mac txPk:count 0
attr interpolationmode none
attr recordingmode count
attr source packetSentToLower
attr title "packets transmitted, count"
scalar UseCase.upf.eth[0].mac txPk:sum(packetBytes) 0
attr interpolationmode none
attr recordingmode sum(packetBytes)
attr source packetSentToLower
attr title "packets transmitted, sum(packetBytes)"
scalar UseCase.upf.eth[0].mac packetReceivedFromUpper:count 0
attr interpolationmode none
attr recordingmode count
attr source packetReceivedFromUpper
attr title "packet bytes from higher layer, count"
scalar UseCase.upf.eth[0].mac packetReceivedFromUpper:sum(packetBytes) 0
attr interpolationmode none
attr recordingmode sum(packetBytes)
attr source packetReceivedFromUpper
attr title "packet bytes from higher layer, sum(packetBytes)"
scalar UseCase.upf.eth[0].mac passedUpPk:count 1
attr interpolationmode none
attr recordingmode count
attr source packetSentToUpper
attr title "packets passed to higher layer, count"
scalar UseCase.upf.eth[0].mac passedUpPk:sum(packetBytes) 114
attr interpolationmode none
attr recordingmode sum(packetBytes)
attr source packetSentToUpper
attr title "packets passed to higher layer, sum(packetBytes)"
scalar UseCase.upf.eth[0].mac packetDropIncorrectlyReceived:count 0
attr interpolationmode none
attr recordingmode count
attr source packetDropReasonIsIncorrectlyReceived(packetDropped)
attr title "packet drop: incorrectly received, count"
scalar UseCase.upf.eth[0].mac packetDropIncorrectlyReceived:sum(packetBytes) 0
attr interpolationmode none
attr recordingmode sum(packetBytes)
attr source packetDropReasonIsIncorrectlyReceived(packetDropped)
attr title "packet drop: incorrectly received, sum(packetBytes)"
scalar UseCase.upf.eth[0].mac packetDropInterfaceDown:count 0
attr interpolationmode none
attr recordingmode count
attr source packetDropReasonIsInterfaceDown(packetDropped)
attr title "packet drop: interface down, count"
scalar UseCase.upf.eth[0].mac packetDropInterfaceDown:sum(packetBytes) 0
attr interpolationmode none
attr recordingmode sum(packetBytes)
attr source packetDropReasonIsInterfaceDown(packetDropped)
attr title "packet drop: interface down, sum(packetBytes)"
scalar UseCase.upf.eth[0].mac packetDropNotAddressedToUs:count 0
attr interpolationmode none
attr recordingmode count
attr source packetDropReasonIsNotAddressedToUs(packetDropped)
attr title "packet drop: not addressed to us, count"
scalar UseCase.upf.eth[0].mac packetDropNotAddressedToUs:sum(packetBytes) 0
attr interpolationmode none
attr recordingmode sum(packetBytes)
attr source packetDropReasonIsNotAddressedToUs(packetDropped)
attr title "packet drop: not addressed to us, sum(packetBytes)"
par UseCase.upf.eth[0] typename "\"inet.linklayer.ethernet.EthernetInterface\""
par UseCase.upf.eth[0] displayStringTextFormat "\"%a (%i)\\n%m\""
par UseCase.upf.eth[0] recordPcap false
par UseCase.upf.eth[0] numPcapRecorders 0
par UseCase.upf.eth[0] interfaceTableModule "\"UseCase.upf.interfaceTable\""
par UseCase.upf.eth[0] protocol "\"ethernetmac\""
par UseCase.upf.eth[0] address "\"0A-AA-00-00-00-01\""
attr mutable ""
par UseCase.upf.eth[0] duplexMode true
par UseCase.upf.eth[0] csmacdSupport false
par UseCase.upf.eth[0] bitrate 1e+10bps
attr unit bps
par UseCase.upf.eth[0] fcsMode "\"declared\""
attr enum declared,computed
scalar UseCase.upf.eth[0] packetDropInterfaceDown:count 0
attr interpolationmode none
attr recordingmode count
attr source packetDropReasonIsInterfaceDown(packetDropped)
attr title "packet drops: interface down, count"
scalar UseCase.upf.eth[0] packetDropInterfaceDown:sum(packetBytes) 0
attr interpolationmode none
attr recordingmode sum(packetBytes)
attr source packetDropReasonIsInterfaceDown(packetDropped)
attr title "packet drops: interface down, sum(packetBytes)"
scalar UseCase.upf.eth[0] packetDropNoCarrier:count 0
attr interpolationmode none
attr recordingmode count
attr source packetDropReasonIsNoCarrier(packetDropped)
attr title "packet drops: no carrier, count"
scalar UseCase.upf.eth[0] packetDropNoCarrier:sum(packetBytes) 0
attr interpolationmode none
attr recordingmode sum(packetBytes)
attr source packetDropReasonIsNoCarrier(packetDropped)
attr title "packet drops: no carrier, sum(packetBytes)"
par UseCase.upf.ipv4.transportIn.channel typename "\"ned.IdealChannel\""
par UseCase.upf.ipv4.up.out[0].channel typename "\"ned.IdealChannel\""
par UseCase.upf.ipv4.lp.out[2].channel typename "\"ned.IdealChannel\""
par UseCase.upf.ipv4.ifIn.channel typename "\"ned.IdealChannel\""
par UseCase.upf.ipv4.configurator typename "\"inet.networklayer.configurator.ipv4.Ipv4NodeConfigurator\""
par UseCase.upf.ipv4.configurator interfaceTableModule "\"UseCase.upf.interfaceTable\""
par UseCase.upf.ipv4.configurator routingTableModule "\"UseCase.upf.ipv4.routingTable\""
par UseCase.upf.ipv4.configurator networkConfiguratorModule "\"configurator\""
par UseCase.upf.ipv4.configurator configureRoutingTable true
par UseCase.upf.ipv4.routingTable typename "\"inet.networklayer.ipv4.Ipv4RoutingTable\""
par UseCase.upf.ipv4.routingTable interfaceTableModule "\"UseCase.upf.interfaceTable\""
par UseCase.upf.ipv4.routingTable routerId "\"auto\""
par UseCase.upf.ipv4.routingTable netmaskRoutes "\"*\""
par UseCase.upf.ipv4.routingTable forwarding true
par UseCase.upf.ipv4.routingTable multicastForwarding false
par UseCase.upf.ipv4.routingTable useAdminDist false
par UseCase.upf.ipv4.routingTable routingFile "\"\""
par UseCase.upf.ipv4.natTable typename "\"inet.networklayer.ipv4.Ipv4NatTable\""
par UseCase.upf.ipv4.natTable networkProtocolModule "\"^.ip\""
par UseCase.upf.ipv4.natTable config "<config/> at content:1"
par UseCase.upf.ipv4.up typename "\"inet.common.MessageDispatcher\""
par UseCase.upf.ipv4.up displayStringTextFormat "\"processed %p pk (%l)\""
par UseCase.upf.ipv4.up forwardServiceRegistration true
par UseCase.upf.ipv4.up forwardProtocolRegistration true
par UseCase.upf.ipv4.igmp typename "\"inet.networklayer.ipv4.Igmpv2\""
par UseCase.upf.ipv4.igmp interfaceTableModule "\"UseCase.upf.interfaceTable\""
par UseCase.upf.ipv4.igmp routingTableModule "\"UseCase.upf.ipv4.routingTable\""
par UseCase.upf.ipv4.igmp crcMode "\"declared\""
attr enum declared,computed
par UseCase.upf.ipv4.igmp enabled true
par UseCase.upf.ipv4.igmp robustnessVariable 2
par UseCase.upf.ipv4.igmp queryInterval 125s
attr unit s
par UseCase.upf.ipv4.igmp queryResponseInterval 10s
attr unit s
par UseCase.upf.ipv4.igmp groupMembershipInterval 260s
attr unit s
par UseCase.upf.ipv4.igmp otherQuerierPresentInterval 255s
attr unit s
par UseCase.upf.ipv4.igmp startupQueryInterval 31.25s
attr unit s
par UseCase.upf.ipv4.igmp startupQueryCount 2
par UseCase.upf.ipv4.igmp lastMemberQueryInterval 1s
attr unit s
par UseCase.upf.ipv4.igmp lastMemberQueryCount 2
par UseCase.upf.ipv4.igmp unsolicitedReportInterval 10s
attr unit s
par UseCase.upf.ipv4.icmp typename "\"inet.networklayer.ipv4.Icmp\""
par UseCase.upf.ipv4.icmp interfaceTableModule "\"UseCase.upf.interfaceTable\""
par UseCase.upf.ipv4.icmp routingTableModule "\"UseCase.upf.ipv4.routingTable\""
par UseCase.upf.ipv4.icmp crcMode "\"declared\""
attr enum declared,computed
attr mutable ""
par UseCase.upf.ipv4.icmp quoteLength 8B
attr mutable ""
attr unit B
par UseCase.upf.ipv4.mp typename "\"inet.common.MessageDispatcher\""
par UseCase.upf.ipv4.mp displayStringTextFormat "\"processed %p pk (%l)\""
par UseCase.upf.ipv4.mp forwardServiceRegistration true
par UseCase.upf.ipv4.mp forwardProtocolRegistration true
par UseCase.upf.ipv4.ip typename "\"inet.networklayer.ipv4.Ipv4\""
par UseCase.upf.ipv4.ip interfaceTableModule "\"UseCase.upf.interfaceTable\""
par UseCase.upf.ipv4.ip routingTableModule "\"UseCase.upf.ipv4.routingTable\""
par UseCase.upf.ipv4.ip arpModule "\"UseCase.upf.ipv4.arp\""
par UseCase.upf.ipv4.ip icmpModule "\"UseCase.upf.ipv4.icmp\""
par UseCase.upf.ipv4.ip crcMode "\"declared\""
attr enum declared,computed
par UseCase.upf.ipv4.ip timeToLive 32
par UseCase.upf.ipv4.ip multicastTimeToLive 32
par UseCase.upf.ipv4.ip fragmentTimeout 60s
attr unit s
par UseCase.upf.ipv4.ip limitedBroadcast false
par UseCase.upf.ipv4.ip directBroadcastInterfaces "\"\""
par UseCase.upf.ipv4.ip enableLocalOutMulticastRouting false
par UseCase.upf.ipv4.ip enableTimestampOption false
par UseCase.upf.ipv4.ip maxLifetime -1s
attr unit s
scalar UseCase.upf.ipv4.ip packetDropAddressResolutionFailed:count 0
attr interpolationmode none
attr recordingmode count
attr source packetDropReasonIsAddressResolutionFailed(packetDropped)
attr title "packet drop: address resolution failed, count"
scalar UseCase.upf.ipv4.ip packetDropAddressResolutionFailed:sum(packetBytes) 0
attr interpolationmode none
attr recordingmode sum(packetBytes)
attr source packetDropReasonIsAddressResolutionFailed(packetDropped)
attr title "packet drop: address resolution failed, sum(packetBytes)"
scalar UseCase.upf.ipv4.ip packetDropHopLimitReached:count 0
attr interpolationmode none
attr recordingmode count
attr source packetDropReasonIsHopLimitReached(packetDropped)
attr title "packet drop: hop limit reached, count"
scalar UseCase.upf.ipv4.ip packetDropHopLimitReached:sum(packetBytes) 0
attr interpolationmode none
attr recordingmode sum(packetBytes)
attr source packetDropReasonIsHopLimitReached(packetDropped)
attr title "packet drop: hop limit reached, sum(packetBytes)"
scalar UseCase.upf.ipv4.ip packetDropForwardingDisabled:count 0
attr interpolationmode none
attr recordingmode count
attr source packetDropReasonIsForwardingDisabled(packetDropped)
attr title "packet drop: forwarding disabled, count"
scalar UseCase.upf.ipv4.ip packetDropForwardingDisabled:sum(packetBytes) 0
attr interpolationmode none
attr recordingmode sum(packetBytes)
attr source packetDropReasonIsForwardingDisabled(packetDropped)
attr title "packet drop: forwarding disabled, sum(packetBytes)"
scalar UseCase.upf.ipv4.ip packetDropLifetimeExpired:count 0
attr interpolationmode none
attr recordingmode count
attr source packetDropReasonIsLifetimeExpired(packetDropped)
attr title "packet drop: lifetime expired, count"
scalar UseCase.upf.ipv4.ip packetDropLifetimeExpired:sum(packetBytes) 0
attr interpolationmode none
attr recordingmode sum(packetBytes)
attr source packetDropReasonIsLifetimeExpired(packetDropped)
attr title "packet drop: lifetime expired, sum(packetBytes)"
scalar UseCase.upf.ipv4.ip packetDropNoInterfaceFound:count 0
attr interpolationmode none
attr recordingmode count
attr source packetDropReasonIsNoInterfaceFound(packetDropped)
attr title "packet drop: no interface found, count"
scalar UseCase.upf.ipv4.ip packetDropNoInterfaceFound:sum(packetBytes) 0
attr interpolationmode none
attr recordingmode sum(packetBytes)
attr source packetDropReasonIsNoInterfaceFound(packetDropped)
attr title "packet drop: no interface found, sum(packetBytes)"
scalar UseCase.upf.ipv4.ip packetDropNoRouteFound:count 0
attr interpolationmode none
attr recordingmode count
attr source packetDropReasonIsNoRouteFound(packetDropped)
attr title "packet drop: no route found, count"
scalar UseCase.upf.ipv4.ip packetDropNoRouteFound:sum(packetBytes) 0
attr interpolationmode none
attr recordingmode sum(packetBytes)
attr source packetDropReasonIsNoRouteFound(packetDropped)
attr title "packet drop: no route found, sum(packetBytes)"
scalar UseCase.upf.ipv4.ip packetDropUndefined:count 0
attr interpolationmode none
attr recordingmode count
attr source packetDropReasonIsUndefined(packetDropped)
attr title "packet drop: undefined, count"
scalar UseCase.upf.ipv4.ip packetDropUndefined:sum(packetBytes) 0
attr interpolationmode none
attr recordingmode sum(packetBytes)
attr source packetDropReasonIsUndefined(packetDropped)
attr title "packet drop: undefined, sum(packetBytes)"
par UseCase.upf.ipv4.arp typename "\"inet.networklayer.arp.ipv4.GlobalArp\""
[...]
field mean -nan
field stddev nan
field min nan
field max nan
field sum 0
field sqrsum 0
attr interpolationmode none
attr recordingmode histogram
attr source "packetLength(demuxFlow(merge(packetPushedIn, packetPulledIn)))"
attr title "flow specific incoming packet lengths"
attr unit b
bin	-inf	0
bin	0	0
bin	1	0
par UseCase.endHost.eth[0].phyLayer.receiver typename "\"inet.protocolelement.transceiver.PacketReceiver\""
par UseCase.endHost.eth[0].phyLayer.receiver displayStringTextFormat "\"processed %p pk (%l)\""
par UseCase.endHost.eth[0].phyLayer.receiver datarate 1e+10bps
attr unit bps
statistic UseCase.endHost.eth[0].phyLayer.receiver throughput:histogram
field count 1
field mean 0
field stddev nan
field min 0
field max 0
field sum 0
field sqrsum 0
attr interpolationmode linear
attr recordingmode histogram
attr source throughput(receptionEnded)
attr title throughput
attr unit bps
bin	-inf	0
bin	-0.5	0
bin	-0.48	0
bin	-0.46	0
bin	-0.44	0
bin	-0.42	0
bin	-0.4	0
bin	-0.38	0
bin	-0.36	0
bin	-0.34	0
bin	-0.32	0
bin	-0.3	0
bin	-0.28	0
bin	-0.26	0
bin	-0.24	0
bin	-0.22	0
bin	-0.2	0
bin	-0.18	0
bin	-0.16	0
bin	-0.14	0
bin	-0.12	0
bin	-0.1	0
bin	-0.08	0
bin	-0.06	0
bin	-0.04	0
bin	-0.02	0
bin	0	1
bin	0.02	0
bin	0.04	0
bin	0.06	0
bin	0.08	0
bin	0.1	0
bin	0.12	0
bin	0.14	0
bin	0.16	0
bin	0.18	0
bin	0.2	0
bin	0.22	0
bin	0.24	0
bin	0.26	0
bin	0.28	0
bin	0.3	0
bin	0.32	0
bin	0.34	0
bin	0.36	0
bin	0.38	0
bin	0.4	0
bin	0.42	0
bin	0.44	0
bin	0.46	0
bin	0.48	0
bin	0.5	0
statistic UseCase.endHost.eth[0].phyLayer.receiver receptionTime:histogram
field count 0
field mean -nan
field stddev nan
field min nan
field max nan
field sum 0
field sqrsum 0
attr interpolationmode none
attr recordingmode histogram
attr source packetDuration(receptionEnded)
attr title "reception time"
attr unit s
bin	-inf	0
bin	0	0
bin	1	0
statistic UseCase.endHost.eth[0].phyLayer.receiver flowReceptionTime:histogram
field count 0
field mean -nan
field stddev nan
field min nan
field max nan
field sum 0
field sqrsum 0
attr interpolationmode none
attr recordingmode histogram
attr source packetDuration(demuxFlow(receptionEnded))
attr title "flow reception time"
attr unit s
bin	-inf	0
bin	0	0
bin	1	0
par UseCase.endHost.eth[0].phyLayer typename "\"inet.physicallayer.wired.ethernet.EthernetPhyLayer\""
par UseCase.endHost.eth[0].phyLayer bitrate this.bitrate
attr unit bps
par UseCase.endHost.eth[0] typename "\"inet.linklayer.ethernet.LayeredEthernetInterface\""
par UseCase.endHost.eth[0] displayStringTextFormat "\"%a (%i)\\n%m\""
par UseCase.endHost.eth[0] recordPcap false
par UseCase.endHost.eth[0] numPcapRecorders 0
par UseCase.endHost.eth[0] protocol "\"ethernetmac\""
par UseCase.endHost.eth[0] broadcast true
par UseCase.endHost.eth[0] multicast true
par UseCase.endHost.eth[0] address "\"0A-AA-00-00-00-10\""
attr mutable ""
par UseCase.endHost.eth[0] bitrate 1e+10bps
attr unit bps
par UseCase.endHost.eth[0] mtu 1500B
attr unit B
par UseCase.endHost.eth[0] interfaceTableModule "\"UseCase.endHost.interfaceTable\""
scalar UseCase.endHost.eth[0] packetDropInterfaceDown:count 0
attr interpolationmode none
attr recordingmode count
attr source packetDropReasonIsInterfaceDown(packetDropped)
attr title "packet drops: interface down, count"
scalar UseCase.endHost.eth[0] packetDropInterfaceDown:sum(packetBytes) 0
attr interpolationmode none
attr recordingmode sum(packetBytes)
attr source packetDropReasonIsInterfaceDown(packetDropped)
attr title "packet drops: interface down, sum(packetBytes)"
scalar UseCase.endHost.eth[0] packetDropNoCarrier:count 0
attr interpolationmode none
attr recordingmode count
attr source packetDropReasonIsNoCarrier(packetDropped)
attr title "packet drops: no carrier, count"
scalar UseCase.endHost.eth[0] packetDropNoCarrier:sum(packetBytes) 0
attr interpolationmode none
attr recordingmode sum(packetBytes)
attr source packetDropReasonIsNoCarrier(packetDropped)
attr title "packet drops: no carrier, sum(packetBytes)"
par UseCase.endHost.ipv4.transportIn.channel typename "\"ned.IdealChannel\""
par UseCase.endHost.ipv4.up.out[0].channel typename "\"ned.IdealChannel\""
par UseCase.endHost.ipv4.lp.out[2].channel typename "\"ned.IdealChannel\""
par UseCase.endHost.ipv4.ifIn.channel typename "\"ned.IdealChannel\""
par UseCase.endHost.ipv4.configurator typename "\"inet.networklayer.configurator.ipv4.Ipv4NodeConfigurator\""
par UseCase.endHost.ipv4.configurator interfaceTableModule "\"UseCase.endHost.interfaceTable\""
par UseCase.endHost.ipv4.configurator routingTableModule "\"UseCase.endHost.ipv4.routingTable\""
par UseCase.endHost.ipv4.configurator networkConfiguratorModule "\"configurator\""
par UseCase.endHost.ipv4.configurator configureRoutingTable true
par UseCase.endHost.ipv4.routingTable typename "\"inet.networklayer.ipv4.Ipv4RoutingTable\""
par UseCase.endHost.ipv4.routingTable interfaceTableModule "\"UseCase.endHost.interfaceTable\""
par UseCase.endHost.ipv4.routingTable routerId "\"auto\""
par UseCase.endHost.ipv4.routingTable netmaskRoutes "\"*\""
par UseCase.endHost.ipv4.routingTable forwarding false
par UseCase.endHost.ipv4.routingTable multicastForwarding false
par UseCase.endHost.ipv4.routingTable useAdminDist false
par UseCase.endHost.ipv4.routingTable routingFile "\"\""
par UseCase.endHost.ipv4.natTable typename "\"inet.networklayer.ipv4.Ipv4NatTable\""
par UseCase.endHost.ipv4.natTable networkProtocolModule "\"^.ip\""
par UseCase.endHost.ipv4.natTable config "<config/> at content:1"
par UseCase.endHost.ipv4.up typename "\"inet.common.MessageDispatcher\""
par UseCase.endHost.ipv4.up displayStringTextFormat "\"processed %p pk (%l)\""
par UseCase.endHost.ipv4.up forwardServiceRegistration true
par UseCase.endHost.ipv4.up forwardProtocolRegistration true
par UseCase.endHost.ipv4.igmp typename "\"inet.networklayer.ipv4.Igmpv2\""
par UseCase.endHost.ipv4.igmp interfaceTableModule "\"UseCase.endHost.interfaceTable\""
par UseCase.endHost.ipv4.igmp routingTableModule "\"UseCase.endHost.ipv4.routingTable\""
par UseCase.endHost.ipv4.igmp crcMode "\"declared\""
attr enum declared,computed
par UseCase.endHost.ipv4.igmp enabled true
par UseCase.endHost.ipv4.igmp robustnessVariable 2
par UseCase.endHost.ipv4.igmp queryInterval 125s
attr unit s
par UseCase.endHost.ipv4.igmp queryResponseInterval 10s
attr unit s
par UseCase.endHost.ipv4.igmp groupMembershipInterval 260s
attr unit s
par UseCase.endHost.ipv4.igmp otherQuerierPresentInterval 255s
attr unit s
par UseCase.endHost.ipv4.igmp startupQueryInterval 31.25s
attr unit s
par UseCase.endHost.ipv4.igmp startupQueryCount 2
par UseCase.endHost.ipv4.igmp lastMemberQueryInterval 1s
attr unit s
par UseCase.endHost.ipv4.igmp lastMemberQueryCount 2
par UseCase.endHost.ipv4.igmp unsolicitedReportInterval 10s
attr unit s
par UseCase.endHost.ipv4.icmp typename "\"inet.networklayer.ipv4.Icmp\""
par UseCase.endHost.ipv4.icmp interfaceTableModule "\"UseCase.endHost.interfaceTable\""
par UseCase.endHost.ipv4.icmp routingTableModule "\"UseCase.endHost.ipv4.routingTable\""
par UseCase.endHost.ipv4.icmp crcMode "\"declared\""
attr enum declared,computed
attr mutable ""
par UseCase.endHost.ipv4.icmp quoteLength 8B
attr mutable ""
attr unit B
par UseCase.endHost.ipv4.mp typename "\"inet.common.MessageDispatcher\""
par UseCase.endHost.ipv4.mp displayStringTextFormat "\"processed %p pk (%l)\""
par UseCase.endHost.ipv4.mp forwardServiceRegistration true
par UseCase.endHost.ipv4.mp forwardProtocolRegistration true
par UseCase.endHost.ipv4.ip typename "\"inet.networklayer.ipv4.Ipv4\""
par UseCase.endHost.ipv4.ip interfaceTableModule "\"UseCase.endHost.interfaceTable\""
par UseCase.endHost.ipv4.ip routingTableModule "\"UseCase.endHost.ipv4.routingTable\""
par UseCase.endHost.ipv4.ip arpModule "\"UseCase.endHost.ipv4.arp\""
par UseCase.endHost.ipv4.ip icmpModule "\"UseCase.endHost.ipv4.icmp\""
par UseCase.endHost.ipv4.ip crcMode "\"declared\""
attr enum declared,computed
par UseCase.endHost.ipv4.ip timeToLive 32
par UseCase.endHost.ipv4.ip multicastTimeToLive 32
par UseCase.endHost.ipv4.ip fragmentTimeout 60s
attr unit s
par UseCase.endHost.ipv4.ip limitedBroadcast false
par UseCase.endHost.ipv4.ip directBroadcastInterfaces "\"\""
par UseCase.endHost.ipv4.ip enableLocalOutMulticastRouting false
par UseCase.endHost.ipv4.ip enableTimestampOption false
par UseCase.endHost.ipv4.ip maxLifetime -1s
attr unit s
scalar UseCase.endHost.ipv4.ip packetDropAddressResolutionFailed:count 0
attr interpolationmode none
attr recordingmode count
attr source packetDropReasonIsAddressResolutionFailed(packetDropped)
attr title "packet drop: address resolution failed, count"
scalar UseCase.endHost.ipv4.ip packetDropAddressResolutionFailed:sum(packetBytes) 0
attr interpolationmode none
attr recordingmode sum(packetBytes)
attr source packetDropReasonIsAddressResolutionFailed(packetDropped)
attr title "packet drop: address resolution failed, sum(packetBytes)"
scalar UseCase.endHost.ipv4.ip packetDropHopLimitReached:count 0
attr interpolationmode none
attr recordingmode count
attr source packetDropReasonIsHopLimitReached(packetDropped)
attr title "packet drop: hop limit reached, count"
scalar UseCase.endHost.ipv4.ip packetDropHopLimitReached:sum(packetBytes) 0
attr interpolationmode none
attr recordingmode sum(packetBytes)
attr source packetDropReasonIsHopLimitReached(packetDropped)
attr title "packet drop: hop limit reached, sum(packetBytes)"
scalar UseCase.endHost.ipv4.ip packetDropForwardingDisabled:count 0
attr interpolationmode none
attr recordingmode count
attr source packetDropReasonIsForwardingDisabled(packetDropped)
attr title "packet drop: forwarding disabled, count"
scalar UseCase.endHost.ipv4.ip packetDropForwardingDisabled:sum(packetBytes) 0
attr interpolationmode none
attr recordingmode sum(packetBytes)
attr source packetDropReasonIsForwardingDisabled(packetDropped)
attr title "packet drop: forwarding disabled, sum(packetBytes)"
scalar UseCase.endHost.ipv4.ip packetDropLifetimeExpired:count 0
attr interpolationmode none
attr recordingmode count
attr source packetDropReasonIsLifetimeExpired(packetDropped)
attr title "packet drop: lifetime expired, count"
scalar UseCase.endHost.ipv4.ip packetDropLifetimeExpired:sum(packetBytes) 0
attr interpolationmode none
attr recordingmode sum(packetBytes)
attr source packetDropReasonIsLifetimeExpired(packetDropped)
attr title "packet drop: lifetime expired, sum(packetBytes)"
scalar UseCase.endHost.ipv4.ip packetDropNoInterfaceFound:count 0
attr interpolationmode none
attr recordingmode count
attr source packetDropReasonIsNoInterfaceFound(packetDropped)
attr title "packet drop: no interface found, count"
scalar UseCase.endHost.ipv4.ip packetDropNoInterfaceFound:sum(packetBytes) 0
attr interpolationmode none
attr recordingmode sum(packetBytes)
attr source packetDropReasonIsNoInterfaceFound(packetDropped)
attr title "packet drop: no interface found, sum(packetBytes)"
scalar UseCase.endHost.ipv4.ip packetDropNoRouteFound:count 0
attr interpolationmode none
attr recordingmode count
attr source packetDropReasonIsNoRouteFound(packetDropped)
attr title "packet drop: no route found, count"
scalar UseCase.endHost.ipv4.ip packetDropNoRouteFound:sum(packetBytes) 0
attr interpolationmode none
attr recordingmode sum(packetBytes)
attr source packetDropReasonIsNoRouteFound(packetDropped)
attr title "packet drop: no route found, sum(packetBytes)"
scalar UseCase.endHost.ipv4.ip packetDropUndefined:count 0
attr interpolationmode none
attr recordingmode count
attr source packetDropReasonIsUndefined(packetDropped)
attr title "packet drop: undefined, count"
scalar UseCase.endHost.ipv4.ip packetDropUndefined:sum(packetBytes) 0
attr interpolationmode none
attr recordingmode sum(packetBytes)
attr source packetDropReasonIsUndefined(packetDropped)
attr title "packet drop: undefined, sum(packetBytes)"
par UseCase.endHost.ipv4.arp typename "\"inet.networklayer.arp.ipv4.GlobalArp\""
par UseCase.endHost.ipv4.arp interfaceTableModule "\"UseCase.endHost.interfaceTable\""
par UseCase.endHost.ipv4.arp addressType "\"ipv4\""
attr enum ipv4,ipv6,mac,moduleid,modulepath
par UseCase.endHost.ipv4.lp typename "\"inet.common.MessageDispatcher\""
par UseCase.endHost.ipv4.lp displayStringTextFormat "\"processed %p pk (%l)\""
par UseCase.endHost.ipv4.lp forwardServiceRegistration true
par UseCase.endHost.ipv4.lp forwardProtocolRegistration true
par UseCase.endHost.ipv4 typename "\"inet.networklayer.ipv4.Ipv4NetworkLayer\""
par UseCase.endHost.ipv4 forwarding false
par UseCase.endHost.ipv4 multicastForwarding false
par UseCase.endHost.ipv4 hasIpsec false
par UseCase.endHost.ipv4 interfaceTableModule "\"UseCase.endHost.interfaceTable\""
par UseCase.endHost.ipv4 displayStringTextFormat "\"%i\""
par UseCase.endHost.nl typename "\"inet.common.MessageDispatcher\""
par UseCase.endHost.nl displayStringTextFormat "\"processed %p pk (%l)\""
par UseCase.endHost.nl forwardServiceRegistration true
par UseCase.endHost.nl forwardProtocolRegistration true
par UseCase.endHost.udp typename "\"inet.transportlayer.udp.Udp\""
par UseCase.endHost.udp interfaceTableModule "\"UseCase.endHost.interfaceTable\""
par UseCase.endHost.udp icmpModule "\"^.ipv4.icmp\""
par UseCase.endHost.udp icmpv6Module "\"^.ipv6.icmpv6\""
par UseCase.endHost.udp crcMode "\"declared\""
attr enum disabled,declared,computed
par UseCase.endHost.udp defaultMulticastLoop true
scalar UseCase.endHost.udp packetReceived:count 0
attr interpolationmode none
attr recordingmode count
attr source packetReceived
attr title "packets received, count"
scalar UseCase.endHost.udp packetReceived:sum(packetBytes) 0
attr interpolationmode none
attr recordingmode sum(packetBytes)
attr source packetReceived
attr title "packets received, sum(packetBytes)"
scalar UseCase.endHost.udp packetSent:count 0
attr interpolationmode none
attr recordingmode count
attr source packetSent
attr title "packets sent, count"
scalar UseCase.endHost.udp packetSent:sum(packetBytes) 0
attr interpolationmode none
attr recordingmode sum(packetBytes)
attr source packetSent
attr title "packets sent, sum(packetBytes)"
scalar UseCase.endHost.udp passedUpPk:count 0
attr interpolationmode none
attr recordingmode count
attr source packetSentToUpper
attr title "packets passed up, count"
scalar UseCase.endHost.udp droppedPkWrongPort:count 0
attr interpolationmode none
attr recordingmode count
attr source packetDropReasonIsNoPortFound(packetDropped)
attr title "packets dropped (wrong port), count"
scalar UseCase.endHost.udp droppedPkBadChecksum:count 0
attr interpolationmode none
attr recordingmode count
attr source packetDropReasonIsIncorrectlyReceived(packetDropped)
attr title "packets dropped (checksum error), count"
par UseCase.endHost.tcp typename "\"inet.transportlayer.tcp.Tcp\""
par UseCase.endHost.tcp crcMode "\"declared\""
attr enum declared,computed
par UseCase.endHost.tcp advertisedWindow 7504
par UseCase.endHost.tcp delayedAcksEnabled false
par UseCase.endHost.tcp nagleEnabled true
par UseCase.endHost.tcp limitedTransmitEnabled false
par UseCase.endHost.tcp increasedIWEnabled false
par UseCase.endHost.tcp sackSupport false
par UseCase.endHost.tcp windowScalingSupport false
par UseCase.endHost.tcp windowScalingFactor -1
par UseCase.endHost.tcp timestampSupport false
par UseCase.endHost.tcp mss 536
par UseCase.endHost.tcp msl 120s
attr unit s
par UseCase.endHost.tcp tcpAlgorithmClass "\"TcpReno\""
attr enum TcpVegas,TcpWestwood,DcTcp,TcpNewReno,TcpReno,TcpTahoe,TcpNoCongestionControl
par UseCase.endHost.tcp dupthresh 3
par UseCase.endHost.tcp initialSsthresh 4294967295
par UseCase.endHost.tcp stopOperationExtraTime 0s
attr unit s
par UseCase.endHost.tcp stopOperationTimeout 2s
attr unit s
par UseCase.endHost.tcp ecnWillingness false
par UseCase.endHost.tcp dctcpGamma 0.0625
par UseCase.endHost.tn typename "\"inet.common.MessageDispatcher\""
par UseCase.endHost.tn displayStringTextFormat "\"processed %p pk (%l)\""
par UseCase.endHost.tn forwardServiceRegistration true
par UseCase.endHost.tn forwardProtocolRegistration true
par UseCase.endHost.app[0] typename "\"inet.applications.udpapp.UdpBasicApp\""
par UseCase.endHost.app[0] interfaceTableModule "\"UseCase.endHost.interfaceTable\""
par UseCase.endHost.app[0] clockModule "\"\""
par UseCase.endHost.app[0] localPort 1000
par UseCase.endHost.app[0] destAddresses "\"\""
par UseCase.endHost.app[0] localAddress "\"\""
par UseCase.endHost.app[0] packetName "\"UdpBasicAppData\""
par UseCase.endHost.app[0] destPort 1001
par UseCase.endHost.app[0] messageLength 32B
attr unit B
par UseCase.endHost.app[0] startTime 0.001s
attr unit s
par UseCase.endHost.app[0] stopTime -1s
attr unit s
par UseCase.endHost.app[0] sendInterval 0.1s
attr unit s
par UseCase.endHost.app[0] timeToLive -1
par UseCase.endHost.app[0] dontFragment false
par UseCase.endHost.app[0] dscp -1
par UseCase.endHost.app[0] tos -1
par UseCase.endHost.app[0] multicastInterface "\"\""
par UseCase.endHost.app[0] receiveBroadcast false
par UseCase.endHost.app[0] joinLocalMulticastGroups false
par UseCase.endHost.app[0] stopOperationExtraTime -1s
attr unit s
par UseCase.endHost.app[0] stopOperationTimeout 2s
attr unit s
scalar UseCase.endHost.app[0] "packets sent" 0
scalar UseCase.endHost.app[0] "packets received" 0
scalar UseCase.endHost.app[0] packetReceived:count 0
attr interpolationmode none
attr recordingmode count
attr source packetReceived
attr title "packets received, count"
scalar UseCase.endHost.app[0] packetReceived:sum(packetBytes) 0
attr interpolationmode none
attr recordingmode sum(packetBytes)
attr source packetReceived
attr title "packets received, sum(packetBytes)"
statistic UseCase.endHost.app[0] rcvdPkLifetime:stats
field count 0
field mean -nan
field stddev nan
field min nan
field max nan
field sum 0
field sqrsum 0
attr interpolationmode none
attr recordingmode stats
attr source dataAge(packetReceived)
attr title "received packet lifetime"
attr unit s
scalar UseCase.endHost.app[0] packetSent:count 0
attr interpolationmode none
attr recordingmode count
attr source packetSent
attr title "packets sent, count"
scalar UseCase.endHost.app[0] packetSent:sum(packetBytes) 0
attr interpolationmode none
attr recordingmode sum(packetBytes)
attr source packetSent
attr title "packets sent, sum(packetBytes)"
par UseCase.endHost.at typename "\"inet.common.MessageDispatcher\""
par UseCase.endHost.at displayStringTextFormat "\"processed %p pk (%l)\""
par UseCase.endHost.at forwardServiceRegistration true
par UseCase.endHost.at forwardProtocolRegistration true
par UseCase.endHost typename "\"inet.node.tsn.TsnDevice\""
par UseCase.endHost hasStatus false
par UseCase.endHost osgModel "\"\""
par UseCase.endHost osgModelColor "\"\""
par UseCase.endHost canvasImage "\"\""
par UseCase.endHost canvasImageColor "\"\""
par UseCase.endHost recordPcap false
par UseCase.endHost numPcapRecorders 0
par UseCase.endHost numLoInterfaces 1
par UseCase.endHost numWlanInterfaces 0
par UseCase.endHost numEthInterfaces 0
par UseCase.endHost numPppInterfaces 0
par UseCase.endHost numTunInterfaces 0
par UseCase.endHost numVirtInterfaces 0
par UseCase.endHost fcsMode "\"declared\""
attr enum declared,computed
par UseCase.endHost hasIpv4 true
par UseCase.endHost hasIpv6 false
par UseCase.endHost hasGn false
par UseCase.endHost forwarding false
par UseCase.endHost multicastForwarding false
par UseCase.endHost hasUdp true
par UseCase.endHost hasTcp true
par UseCase.endHost hasSctp false
par UseCase.endHost numApps 1
par UseCase.endHost hasTimeSynchronization false
par UseCase.endHost hasIngressTrafficFiltering false
par UseCase.endHost hasEgressTrafficFiltering false
par UseCase.endHost hasEgressTrafficShaping false
par UseCase.endHost hasStreamRedundancy false
par UseCase.endHost hasIncomingStreams false
par UseCase.endHost hasOutgoingStreams false
par UseCase.endHost hasFramePreemption false
par UseCase.endHost hasCutthroughSwitching false
par UseCase typename "\"simulation.UseCase\""
par UseCase recordPcap false
par UseCase numPcapRecorders 0
par UseCase hasGlobalArp true

