version 3
run timeSynchronization-0-20240221-15:38:45-13319
attr configname timeSynchronization
attr datetime 20240221-15:38:45
attr datetimef 20240221-153845
attr experiment timeSynchronization
attr inifile omnetpp.ini
attr iterationvars ""
attr iterationvarsd ""
attr iterationvarsf ""
attr measurement ""
attr network UseCase
attr processid 13319
attr repetition 0
attr replication #0
attr resultdir results
attr runnumber 0
attr seedset 0
config image-path ../../inet/images:../../Simu5G/images
config *.gPTP*.hasTimeSynchronization false
config **.hasTimeSynchronization true
config *.endHost.gptp.gptpNodeType "\"MASTER_NODE\""
config *.endHost.gptp.masterPorts "[\"eth0\"]"
config *.endHost.gptp.slavePort "\"\""
config *.switch*.gptp.masterPorts "[\"eth1\"]"
config *.switch*.gptp.slavePort "\"eth0\""
config *.NSTT.gptp.typename Gptp5g
config *.NSTT.gptp.gptpNodeType "\"BRIDGE_NODE\""
config *.NSTT.gptp.masterPorts "[\"eth0\"]"
config *.NSTT.gptp.slavePort "\"eth1\""
config *.NSTT.gptp.dAddress "\"DSTT\""
config *.NSTT.gptp.ipNIC "\"eth0\""
config *.DSTT.gptp.typename Gptp5g
config *.DSTT.gptp.gptpNodeType "\"SLAVE_NODE\""
config *.DSTT.gptp.slavePort "\"eth0\""
config *.DSTT.gptp.dAddress "\"NSTT\""
config *.DSTT.gptp.ipNIC "\"eth0\""
config *.visualizer.typename IntegratedMultiCanvasVisualizer
config **.referenceClock "\"endHost.clock\""
config *.visualizer.numInfoVisualizers 4
config *.visualizer.infoVisualizer[0].modules "\"*.DSTT.clock\""
config *.visualizer.infoVisualizer[0].placementHint "\"top\""
config *.DSTT.clock.displayStringTextFormat "\"diff: %d\""
config *.visualizer.infoVisualizer[1].modules "\"*.NSTT.clock\""
config *.visualizer.infoVisualizer[1].placementHint "\"left\""
config *.NSTT.clock.displayStringTextFormat "\"diff: %d\""
config *.visualizer.infoVisualizer[2].modules "\"*.switch*.clock\""
config *.visualizer.infoVisualizer[2].placementHint "\"bottom\""
config *.switch*.clock.displayStringTextFormat "\"diff: %d\""
config *.visualizer.infoVisualizer[3].modules "\"*.endHost.clock\""
config *.visualizer.infoVisualizer[3].placementHint "\"bottom\""
config *.endHost.clock.displayStringTextFormat "\"time: %T\""
config network UseCase
config **.eth[*].bitrate 10Gbps
config **.mobility.typename ""
config *.ue.macCellId 0
config *.ue.masterId 0
config *.ue.nrMacCellId 1
config *.ue.nrMasterId 1
config *.ue.intHostAddress "\"DSTT\""

par UseCase.switch5GC.ethg$o[0].channel typename "\"inet.node.ethernet.Eth10G\""
par UseCase.switch5GC.ethg$o[0].channel disabled false
attr mutable ""
par UseCase.switch5GC.ethg$o[0].channel delay 5e-08s
attr mutable ""
attr unit s
par UseCase.switch5GC.ethg$o[0].channel datarate 1e+10bps
attr mutable ""
attr unit bps
par UseCase.switch5GC.ethg$o[0].channel ber 0
attr mutable ""
par UseCase.switch5GC.ethg$o[0].channel per 0
attr mutable ""
par UseCase.switch5GC.ethg$o[0].channel length 10m
attr unit m
par UseCase.endHost.ethg$o[0].channel typename "\"inet.node.ethernet.Eth10G\""
par UseCase.endHost.ethg$o[0].channel disabled false
attr mutable ""
par UseCase.endHost.ethg$o[0].channel delay 5e-08s
attr mutable ""
attr unit s
par UseCase.endHost.ethg$o[0].channel datarate 1e+10bps
attr mutable ""
attr unit bps
par UseCase.endHost.ethg$o[0].channel ber 0
attr mutable ""
par UseCase.endHost.ethg$o[0].channel per 0
attr mutable ""
par UseCase.endHost.ethg$o[0].channel length 10m
attr unit m
par UseCase.gPTPAux.pppg$o[0].channel typename "\"inet.node.ethernet.Eth10G\""
par UseCase.gPTPAux.pppg$o[0].channel disabled false
attr mutable ""
par UseCase.gPTPAux.pppg$o[0].channel delay 5e-08s
attr mutable ""
attr unit s
par UseCase.gPTPAux.pppg$o[0].channel datarate 1e+10bps
attr mutable ""
attr unit bps
par UseCase.gPTPAux.pppg$o[0].channel ber 0
attr mutable ""
par UseCase.gPTPAux.pppg$o[0].channel per 0
attr mutable ""
par UseCase.gPTPAux.pppg$o[0].channel length 10m
attr unit m
par UseCase.upf.filterGate$o.channel typename "\"inet.node.ethernet.Eth10G\""
par UseCase.upf.filterGate$o.channel disabled false
attr mutable ""
par UseCase.upf.filterGate$o.channel delay 5e-08s
attr mutable ""
attr unit s
par UseCase.upf.filterGate$o.channel datarate 1e+10bps
attr mutable ""
attr unit bps
par UseCase.upf.filterGate$o.channel ber 0
attr mutable ""
par UseCase.upf.filterGate$o.channel per 0
attr mutable ""
par UseCase.upf.filterGate$o.channel length 10m
attr unit m
par UseCase.NSTT.ethg$o[0].channel typename "\"inet.node.ethernet.Eth10G\""
par UseCase.NSTT.ethg$o[0].channel disabled false
attr mutable ""
par UseCase.NSTT.ethg$o[0].channel delay 5e-08s
attr mutable ""
attr unit s
par UseCase.NSTT.ethg$o[0].channel datarate 1e+10bps
attr mutable ""
attr unit bps
par UseCase.NSTT.ethg$o[0].channel ber 0
attr mutable ""
par UseCase.NSTT.ethg$o[0].channel per 0
attr mutable ""
par UseCase.NSTT.ethg$o[0].channel length 10m
attr unit m
par UseCase.gPTPAux.ethg$o[0].channel typename "\"inet.node.ethernet.Eth10G\""
par UseCase.gPTPAux.ethg$o[0].channel disabled false
attr mutable ""
par UseCase.gPTPAux.ethg$o[0].channel delay 5e-08s
attr mutable ""
attr unit s
par UseCase.gPTPAux.ethg$o[0].channel datarate 1e+10bps
attr mutable ""
attr unit bps
par UseCase.gPTPAux.ethg$o[0].channel ber 0
attr mutable ""
par UseCase.gPTPAux.ethg$o[0].channel per 0
attr mutable ""
par UseCase.gPTPAux.ethg$o[0].channel length 10m
attr unit m
par UseCase.upf.pppg$o[0].channel typename "\"inet.node.ethernet.Eth10G\""
par UseCase.upf.pppg$o[0].channel disabled false
attr mutable ""
par UseCase.upf.pppg$o[0].channel delay 5e-08s
attr mutable ""
attr unit s
par UseCase.upf.pppg$o[0].channel datarate 1e+10bps
attr mutable ""
attr unit bps
par UseCase.upf.pppg$o[0].channel ber 0
attr mutable ""
par UseCase.upf.pppg$o[0].channel per 0
attr mutable ""
par UseCase.upf.pppg$o[0].channel length 10m
attr unit m
par UseCase.gNB.ppp$o.channel typename "\"inet.node.ethernet.Eth10G\""
par UseCase.gNB.ppp$o.channel disabled false
attr mutable ""
par UseCase.gNB.ppp$o.channel delay 5e-08s
attr mutable ""
attr unit s
par UseCase.gNB.ppp$o.channel datarate 1e+10bps
attr mutable ""
attr unit bps
par UseCase.gNB.ppp$o.channel ber 0
attr mutable ""
par UseCase.gNB.ppp$o.channel per 0
attr mutable ""
par UseCase.gNB.ppp$o.channel length 10m
attr unit m
par UseCase.ue.ethg$o[0].channel typename "\"inet.node.ethernet.Eth10G\""
par UseCase.ue.ethg$o[0].channel disabled false
attr mutable ""
par UseCase.ue.ethg$o[0].channel delay 5e-08s
attr mutable ""
attr unit s
par UseCase.ue.ethg$o[0].channel datarate 1e+10bps
attr mutable ""
attr unit bps
par UseCase.ue.ethg$o[0].channel ber 0
attr mutable ""
par UseCase.ue.ethg$o[0].channel per 0
attr mutable ""
par UseCase.ue.ethg$o[0].channel length 10m
attr unit m
par UseCase.DSTT.ethg$o[0].channel typename "\"inet.node.ethernet.Eth10G\""
par UseCase.DSTT.ethg$o[0].channel disabled false
attr mutable ""
par UseCase.DSTT.ethg$o[0].channel delay 5e-08s
attr mutable ""
attr unit s
par UseCase.DSTT.ethg$o[0].channel datarate 1e+10bps
attr mutable ""
attr unit bps
par UseCase.DSTT.ethg$o[0].channel ber 0
attr mutable ""
par UseCase.DSTT.ethg$o[0].channel per 0
attr mutable ""
par UseCase.DSTT.ethg$o[0].channel length 10m
attr unit m
par UseCase.DSTT.ethg$o[1].channel typename "\"inet.node.ethernet.Eth10G\""
par UseCase.DSTT.ethg$o[1].channel disabled false
attr mutable ""
par UseCase.DSTT.ethg$o[1].channel delay 5e-08s
attr mutable ""
attr unit s
par UseCase.DSTT.ethg$o[1].channel datarate 1e+10bps
attr mutable ""
attr unit bps
par UseCase.DSTT.ethg$o[1].channel ber 0
attr mutable ""
par UseCase.DSTT.ethg$o[1].channel per 0
attr mutable ""
par UseCase.DSTT.ethg$o[1].channel length 10m
attr unit m
par UseCase.switchTSN.ethg$o[0].channel typename "\"inet.node.ethernet.Eth10G\""
par UseCase.switchTSN.ethg$o[0].channel disabled false
attr mutable ""
par UseCase.switchTSN.ethg$o[0].channel delay 5e-08s
attr mutable ""
attr unit s
par UseCase.switchTSN.ethg$o[0].channel datarate 1e+10bps
attr mutable ""
attr unit bps
par UseCase.switchTSN.ethg$o[0].channel ber 0
attr mutable ""
par UseCase.switchTSN.ethg$o[0].channel per 0
attr mutable ""
par UseCase.switchTSN.ethg$o[0].channel length 10m
attr unit m
par UseCase.switchTSN.ethg$o[1].channel typename "\"inet.node.ethernet.Eth10G\""
par UseCase.switchTSN.ethg$o[1].channel disabled false
attr mutable ""
par UseCase.switchTSN.ethg$o[1].channel delay 5e-08s
attr mutable ""
attr unit s
par UseCase.switchTSN.ethg$o[1].channel datarate 1e+10bps
attr mutable ""
attr unit bps
par UseCase.switchTSN.ethg$o[1].channel ber 0
attr mutable ""
par UseCase.switchTSN.ethg$o[1].channel per 0
attr mutable ""
par UseCase.switchTSN.ethg$o[1].channel length 10m
attr unit m
par UseCase.receiverTSN.ethg$o[0].channel typename "\"inet.node.ethernet.Eth10G\""
par UseCase.receiverTSN.ethg$o[0].channel disabled false
attr mutable ""
par UseCase.receiverTSN.ethg$o[0].channel delay 5e-08s
attr mutable ""
attr unit s
par UseCase.receiverTSN.ethg$o[0].channel datarate 1e+10bps
attr mutable ""
attr unit bps
par UseCase.receiverTSN.ethg$o[0].channel ber 0
attr mutable ""
par UseCase.receiverTSN.ethg$o[0].channel per 0
attr mutable ""
par UseCase.receiverTSN.ethg$o[0].channel length 10m
attr unit m
par UseCase.NSTT.ethg$o[1].channel typename "\"inet.node.ethernet.Eth10G\""
par UseCase.NSTT.ethg$o[1].channel disabled false
attr mutable ""
par UseCase.NSTT.ethg$o[1].channel delay 5e-08s
attr mutable ""
attr unit s
par UseCase.NSTT.ethg$o[1].channel datarate 1e+10bps
attr mutable ""
attr unit bps
par UseCase.NSTT.ethg$o[1].channel ber 0
attr mutable ""
par UseCase.NSTT.ethg$o[1].channel per 0
attr mutable ""
par UseCase.NSTT.ethg$o[1].channel length 10m
attr unit m
par UseCase.switch5GC.ethg$o[1].channel typename "\"inet.node.ethernet.Eth10G\""
par UseCase.switch5GC.ethg$o[1].channel disabled false
attr mutable ""
par UseCase.switch5GC.ethg$o[1].channel delay 5e-08s
attr mutable ""
attr unit s
par UseCase.switch5GC.ethg$o[1].channel datarate 1e+10bps
attr mutable ""
attr unit bps
par UseCase.switch5GC.ethg$o[1].channel ber 0
attr mutable ""
par UseCase.switch5GC.ethg$o[1].channel per 0
attr mutable ""
par UseCase.switch5GC.ethg$o[1].channel length 10m
attr unit m
par UseCase.visualizer.sceneVisualizer[0] typename "\"inet.visualizer.canvas.scene.SceneCanvasVisualizer\""
par UseCase.visualizer.sceneVisualizer[0] visualizationTargetModule "\"^.^\""
par UseCase.visualizer.sceneVisualizer[0] visualizationSubjectModule "\"^.^\""
par UseCase.visualizer.sceneVisualizer[0] tags "\"\""
par UseCase.visualizer.sceneVisualizer[0] physicalEnvironmentModule "\"physicalEnvironment\""
par UseCase.visualizer.sceneVisualizer[0] networkNodeVisualizerModule "\"UseCase.visualizer.networkNodeVisualizer[0]\""
par UseCase.visualizer.sceneVisualizer[0] axisLength "nan m"
attr mutable ""
attr unit m
par UseCase.visualizer.sceneVisualizer[0] animationSpeed 0
par UseCase.visualizer.sceneVisualizer[0] sceneMinX "nan m"
attr unit m
par UseCase.visualizer.sceneVisualizer[0] sceneMinY "nan m"
attr unit m
par UseCase.visualizer.sceneVisualizer[0] sceneMinZ "nan m"
attr unit m
par UseCase.visualizer.sceneVisualizer[0] sceneMaxX "nan m"
attr unit m
par UseCase.visualizer.sceneVisualizer[0] sceneMaxY "nan m"
attr unit m
par UseCase.visualizer.sceneVisualizer[0] sceneMaxZ "nan m"
attr unit m
par UseCase.visualizer.sceneVisualizer[0] zIndex 0
par UseCase.visualizer.sceneVisualizer[0] viewAngle "\"x right y down z out\""
attr mutable ""
par UseCase.visualizer.sceneVisualizer[0] viewScale "\"1 1\""
attr mutable ""
par UseCase.visualizer.sceneVisualizer[0] viewTranslation "\"0 0\""
attr mutable ""
par UseCase.visualizer.sceneVisualizer[0] descriptionFigure "\"\""
par UseCase.visualizer.physicalEnvironmentVisualizer[0] typename "\"inet.visualizer.canvas.environment.PhysicalEnvironmentCanvasVisualizer\""
par UseCase.visualizer.physicalEnvironmentVisualizer[0] visualizationTargetModule "\"^.^\""
par UseCase.visualizer.physicalEnvironmentVisualizer[0] visualizationSubjectModule "\"^.^\""
par UseCase.visualizer.physicalEnvironmentVisualizer[0] tags "\"\""
par UseCase.visualizer.physicalEnvironmentVisualizer[0] physicalEnvironmentModule "\"physicalEnvironment\""
par UseCase.visualizer.physicalEnvironmentVisualizer[0] displayObjects true
par UseCase.visualizer.physicalEnvironmentVisualizer[0] zIndex 0
par UseCase.visualizer.networkNodeVisualizer[0] typename "\"inet.visualizer.canvas.scene.NetworkNodeCanvasVisualizer\""
par UseCase.visualizer.networkNodeVisualizer[0] visualizationTargetModule "\"^.^\""
par UseCase.visualizer.networkNodeVisualizer[0] visualizationSubjectModule "\"^.^\""
par UseCase.visualizer.networkNodeVisualizer[0] tags "\"\""
par UseCase.visualizer.networkNodeVisualizer[0] nodeFilter "\"*\""
attr mutable ""
par UseCase.visualizer.networkNodeVisualizer[0] annotationSpacing 4
par UseCase.visualizer.networkNodeVisualizer[0] placementPenalty 10
par UseCase.visualizer.networkNodeVisualizer[0] zIndex 0
par UseCase.visualizer.networkConnectionVisualizer[0] typename "\"inet.visualizer.canvas.scene.NetworkConnectionCanvasVisualizer\""
par UseCase.visualizer.networkConnectionVisualizer[0] visualizationTargetModule "\"^.^\""
par UseCase.visualizer.networkConnectionVisualizer[0] visualizationSubjectModule "\"^.^\""
par UseCase.visualizer.networkConnectionVisualizer[0] tags "\"\""
par UseCase.visualizer.networkConnectionVisualizer[0] displayNetworkConnections true
par UseCase.visualizer.networkConnectionVisualizer[0] nodeFilter "\"\""
attr mutable ""
par UseCase.visualizer.networkConnectionVisualizer[0] lineColor "\"black\""
par UseCase.visualizer.networkConnectionVisualizer[0] lineStyle "\"solid\""
par UseCase.visualizer.networkConnectionVisualizer[0] lineWidth 1
par UseCase.visualizer.networkConnectionVisualizer[0] zIndex 0
par UseCase.visualizer.mobilityVisualizer[0] typename "\"inet.visualizer.canvas.mobility.MobilityCanvasVisualizer\""
par UseCase.visualizer.mobilityVisualizer[0] visualizationTargetModule "\"^.^\""
par UseCase.visualizer.mobilityVisualizer[0] visualizationSubjectModule "\"^.^\""
par UseCase.visualizer.mobilityVisualizer[0] tags "\"\""
par UseCase.visualizer.mobilityVisualizer[0] networkNodeVisualizerModule "\"UseCase.visualizer.networkNodeVisualizer[0]\""
par UseCase.visualizer.mobilityVisualizer[0] displayMobility true
par UseCase.visualizer.mobilityVisualizer[0] animationSpeed 0
par UseCase.visualizer.mobilityVisualizer[0] moduleFilter "\"**.mobility\""
attr mutable ""
par UseCase.visualizer.mobilityVisualizer[0] displayPositions false
par UseCase.visualizer.mobilityVisualizer[0] positionCircleRadius 4
par UseCase.visualizer.mobilityVisualizer[0] positionCircleLineWidth 1
par UseCase.visualizer.mobilityVisualizer[0] positionCircleLineColor "\"dark\""
attr enum light,dark
par UseCase.visualizer.mobilityVisualizer[0] positionCircleFillColor "\"dark\""
attr enum light,dark
par UseCase.visualizer.mobilityVisualizer[0] displayOrientations false
par UseCase.visualizer.mobilityVisualizer[0] orientationPieRadius 32
par UseCase.visualizer.mobilityVisualizer[0] orientationPieSize 0.2
par UseCase.visualizer.mobilityVisualizer[0] orientationPieOpacity 0.25
par UseCase.visualizer.mobilityVisualizer[0] orientationLineColor "\"black\""
par UseCase.visualizer.mobilityVisualizer[0] orientationLineStyle "\"solid\""
par UseCase.visualizer.mobilityVisualizer[0] orientationLineWidth 1
par UseCase.visualizer.mobilityVisualizer[0] orientationFillColor "\"blue\""
par UseCase.visualizer.mobilityVisualizer[0] displayVelocities false
par UseCase.visualizer.mobilityVisualizer[0] velocityArrowScale 1
par UseCase.visualizer.mobilityVisualizer[0] velocityLineColor "\"black\""
par UseCase.visualizer.mobilityVisualizer[0] velocityLineStyle "\"solid\""
par UseCase.visualizer.mobilityVisualizer[0] velocityLineWidth 1
par UseCase.visualizer.mobilityVisualizer[0] displayMovementTrails false
par UseCase.visualizer.mobilityVisualizer[0] movementTrailLineColor "\"dark\""
attr enum light,dark
par UseCase.visualizer.mobilityVisualizer[0] movementTrailLineStyle "\"solid\""
par UseCase.visualizer.mobilityVisualizer[0] movementTrailLineWidth 1
par UseCase.visualizer.mobilityVisualizer[0] trailLength 100
par UseCase.visualizer.mobilityVisualizer[0] zIndex 0
par UseCase.visualizer.statisticVisualizer[0] typename "\"inet.visualizer.canvas.common.StatisticCanvasVisualizer\""
par UseCase.visualizer.statisticVisualizer[0] visualizationTargetModule "\"^.^\""
par UseCase.visualizer.statisticVisualizer[0] visualizationSubjectModule "\"^.^\""
par UseCase.visualizer.statisticVisualizer[0] tags "\"\""
par UseCase.visualizer.statisticVisualizer[0] networkNodeVisualizerModule "\"UseCase.visualizer.networkNodeVisualizer[0]\""
par UseCase.visualizer.statisticVisualizer[0] displayStatistics true
par UseCase.visualizer.statisticVisualizer[0] signalName "\"\""
par UseCase.visualizer.statisticVisualizer[0] statisticName "\"\""
par UseCase.visualizer.statisticVisualizer[0] statisticUnit "\"\""
par UseCase.visualizer.statisticVisualizer[0] statisticExpression "\"\""
par UseCase.visualizer.statisticVisualizer[0] sourceFilter "\"**\""
attr mutable ""
par UseCase.visualizer.statisticVisualizer[0] format "\"%n: %v %u\""
attr mutable ""
par UseCase.visualizer.statisticVisualizer[0] unit "\"\""
par UseCase.visualizer.statisticVisualizer[0] font "\"<default>\""
par UseCase.visualizer.statisticVisualizer[0] textColor "\"black\""
par UseCase.visualizer.statisticVisualizer[0] backgroundColor "\"white\""
par UseCase.visualizer.statisticVisualizer[0] opacity 1
par UseCase.visualizer.statisticVisualizer[0] placementHint "\"top\""
par UseCase.visualizer.statisticVisualizer[0] placementPriority 0
par UseCase.visualizer.statisticVisualizer[0] zIndex 10
par UseCase.visualizer.statisticVisualizer[0] propertyName "\"\""
par UseCase.visualizer.statisticVisualizer[0] propertyIndex "\"\""
par UseCase.visualizer.infoVisualizer[0] typename "\"inet.visualizer.canvas.common.InfoCanvasVisualizer\""
par UseCase.visualizer.infoVisualizer[0] visualizationTargetModule "\"^.^\""
par UseCase.visualizer.infoVisualizer[0] visualizationSubjectModule "\"^.^\""
par UseCase.visualizer.infoVisualizer[0] tags "\"\""
par UseCase.visualizer.infoVisualizer[0] networkNodeVisualizerModule "\"UseCase.visualizer.networkNodeVisualizer[0]\""
par UseCase.visualizer.infoVisualizer[0] displayInfos true
par UseCase.visualizer.infoVisualizer[0] modules "\"*.DSTT.clock\""
attr mutable ""
par UseCase.visualizer.infoVisualizer[0] format "\"%t\""
attr mutable ""
par UseCase.visualizer.infoVisualizer[0] font "\"<default>\""
par UseCase.visualizer.infoVisualizer[0] textColor "\"black\""
par UseCase.visualizer.infoVisualizer[0] backgroundColor "\"white\""
par UseCase.visualizer.infoVisualizer[0] opacity 1
par UseCase.visualizer.infoVisualizer[0] placementHint "\"top\""
par UseCase.visualizer.infoVisualizer[0] placementPriority 0
par UseCase.visualizer.infoVisualizer[0] zIndex 10
par UseCase.visualizer.infoVisualizer[1] typename "\"inet.visualizer.canvas.common.InfoCanvasVisualizer\""
par UseCase.visualizer.infoVisualizer[1] visualizationTargetModule "\"^.^\""
par UseCase.visualizer.infoVisualizer[1] visualizationSubjectModule "\"^.^\""
par UseCase.visualizer.infoVisualizer[1] tags "\"\""
par UseCase.visualizer.infoVisualizer[1] networkNodeVisualizerModule "\"UseCase.visualizer.networkNodeVisualizer[0]\""
par UseCase.visualizer.infoVisualizer[1] displayInfos true
par UseCase.visualizer.infoVisualizer[1] modules "\"*.NSTT.clock\""
attr mutable ""
par UseCase.visualizer.infoVisualizer[1] format "\"%t\""
attr mutable ""
par UseCase.visualizer.infoVisualizer[1] font "\"<default>\""
par UseCase.visualizer.infoVisualizer[1] textColor "\"black\""
par UseCase.visualizer.infoVisualizer[1] backgroundColor "\"white\""
par UseCase.visualizer.infoVisualizer[1] opacity 1
par UseCase.visualizer.infoVisualizer[1] placementHint "\"left\""
par UseCase.visualizer.infoVisualizer[1] placementPriority 0
par UseCase.visualizer.infoVisualizer[1] zIndex 10
par UseCase.visualizer.infoVisualizer[2] typename "\"inet.visualizer.canvas.common.InfoCanvasVisualizer\""
par UseCase.visualizer.infoVisualizer[2] visualizationTargetModule "\"^.^\""
par UseCase.visualizer.infoVisualizer[2] visualizationSubjectModule "\"^.^\""
par UseCase.visualizer.infoVisualizer[2] tags "\"\""
par UseCase.visualizer.infoVisualizer[2] networkNodeVisualizerModule "\"UseCase.visualizer.networkNodeVisualizer[0]\""
par UseCase.visualizer.infoVisualizer[2] displayInfos true
par UseCase.visualizer.infoVisualizer[2] modules "\"*.switch*.clock\""
attr mutable ""
par UseCase.visualizer.infoVisualizer[2] format "\"%t\""
attr mutable ""
par UseCase.visualizer.infoVisualizer[2] font "\"<default>\""
par UseCase.visualizer.infoVisualizer[2] textColor "\"black\""
par UseCase.visualizer.infoVisualizer[2] backgroundColor "\"white\""
par UseCase.visualizer.infoVisualizer[2] opacity 1
par UseCase.visualizer.infoVisualizer[2] placementHint "\"bottom\""
par UseCase.visualizer.infoVisualizer[2] placementPriority 0
par UseCase.visualizer.infoVisualizer[2] zIndex 10
par UseCase.visualizer.infoVisualizer[3] typename "\"inet.visualizer.canvas.common.InfoCanvasVisualizer\""
par UseCase.visualizer.infoVisualizer[3] visualizationTargetModule "\"^.^\""
par UseCase.visualizer.infoVisualizer[3] visualizationSubjectModule "\"^.^\""
par UseCase.visualizer.infoVisualizer[3] tags "\"\""
par UseCase.visualizer.infoVisualizer[3] networkNodeVisualizerModule "\"UseCase.visualizer.networkNodeVisualizer[0]\""
par UseCase.visualizer.infoVisualizer[3] displayInfos true
par UseCase.visualizer.infoVisualizer[3] modules "\"*.endHost.clock\""
attr mutable ""
par UseCase.visualizer.infoVisualizer[3] format "\"%t\""
attr mutable ""
par UseCase.visualizer.infoVisualizer[3] font "\"<default>\""
par UseCase.visualizer.infoVisualizer[3] textColor "\"black\""
par UseCase.visualizer.infoVisualizer[3] backgroundColor "\"white\""
par UseCase.visualizer.infoVisualizer[3] opacity 1
par UseCase.visualizer.infoVisualizer[3] placementHint "\"bottom\""
par UseCase.visualizer.infoVisualizer[3] placementPriority 0
par UseCase.visualizer.infoVisualizer[3] zIndex 10
par UseCase.visualizer.energyStorageVisualizer[0] typename "\"inet.visualizer.canvas.power.EnergyStorageCanvasVisualizer\""
par UseCase.visualizer.energyStorageVisualizer[0] visualizationTargetModule "\"^.^\""
par UseCase.visualizer.energyStorageVisualizer[0] visualizationSubjectModule "\"^.^\""
par UseCase.visualizer.energyStorageVisualizer[0] tags "\"\""
par UseCase.visualizer.energyStorageVisualizer[0] networkNodeVisualizerModule "\"UseCase.visualizer.networkNodeVisualizer[0]\""
par UseCase.visualizer.energyStorageVisualizer[0] displayEnergyStorages false
par UseCase.visualizer.energyStorageVisualizer[0] energyStorageFilter "\"**\""
par UseCase.visualizer.energyStorageVisualizer[0] color "\"green\""
par UseCase.visualizer.energyStorageVisualizer[0] width 8
par UseCase.visualizer.energyStorageVisualizer[0] height 24
par UseCase.visualizer.energyStorageVisualizer[0] spacing 2
par UseCase.visualizer.energyStorageVisualizer[0] placementHint "\"right\""
par UseCase.visualizer.energyStorageVisualizer[0] placementPriority 0
par UseCase.visualizer.energyStorageVisualizer[0] zIndex 10
par UseCase.visualizer.mediumVisualizer[0] typename "\"inet.visualizer.canvas.physicallayer.MediumCanvasVisualizer\""
par UseCase.visualizer.mediumVisualizer[0] visualizationTargetModule "\"^.^\""
par UseCase.visualizer.mediumVisualizer[0] visualizationSubjectModule "\"^.^\""
par UseCase.visualizer.mediumVisualizer[0] tags "\"\""
par UseCase.visualizer.mediumVisualizer[0] mediumModule "\"radioMedium\""
par UseCase.visualizer.mediumVisualizer[0] networkNodeVisualizerModule "\"UseCase.visualizer.networkNodeVisualizer[0]\""
par UseCase.visualizer.mediumVisualizer[0] nodeFilter "\"*\""
attr mutable ""
par UseCase.visualizer.mediumVisualizer[0] interfaceFilter "\"*\""
attr mutable ""
par UseCase.visualizer.mediumVisualizer[0] packetFilter "(omnetpp::cValueHolder)holder: \"*\""
attr mutable ""
par UseCase.visualizer.mediumVisualizer[0] displaySignals false
par UseCase.visualizer.mediumVisualizer[0] signalColor "\"dark\""
attr enum light,dark
par UseCase.visualizer.mediumVisualizer[0] signalPropagationAnimationSpeed "nan "
attr mutable ""
par UseCase.visualizer.mediumVisualizer[0] signalPropagationAnimationTime 1s
attr unit s
par UseCase.visualizer.mediumVisualizer[0] signalPropagationAdditionalTime 0s
attr unit s
par UseCase.visualizer.mediumVisualizer[0] signalTransmissionAnimationSpeed "nan "
attr mutable ""
par UseCase.visualizer.mediumVisualizer[0] signalTransmissionAnimationTime 1s
attr unit s
par UseCase.visualizer.mediumVisualizer[0] signalAnimationSpeedChangeTimeMode "\"realTime\""
attr enum realTime,animationTime,simulationTime
par UseCase.visualizer.mediumVisualizer[0] signalAnimationSpeedChangeTime 1s
attr unit s
par UseCase.visualizer.mediumVisualizer[0] displaySignalDepartures false
par UseCase.visualizer.mediumVisualizer[0] signalDepartureImage "\"misc/signal_departure.png\""
par UseCase.visualizer.mediumVisualizer[0] signalDeparturePlacementHint "\"topCenter\""
par UseCase.visualizer.mediumVisualizer[0] signalDeparturePlacementPriority 1
par UseCase.visualizer.mediumVisualizer[0] displaySignalArrivals false
par UseCase.visualizer.mediumVisualizer[0] signalArrivalImage "\"misc/signal_arrival.png\""
par UseCase.visualizer.mediumVisualizer[0] signalArrivalPlacementHint "\"topCenter\""
par UseCase.visualizer.mediumVisualizer[0] signalArrivalPlacementPriority -1
par UseCase.visualizer.mediumVisualizer[0] displayCommunicationRanges false
par UseCase.visualizer.mediumVisualizer[0] communicationRangeLineColor "\"blue\""
par UseCase.visualizer.mediumVisualizer[0] communicationRangeLineStyle "\"solid\""
par UseCase.visualizer.mediumVisualizer[0] communicationRangeLineWidth 1
par UseCase.visualizer.mediumVisualizer[0] displayInterferenceRanges false
par UseCase.visualizer.mediumVisualizer[0] interferenceRangeLineColor "\"gray\""
par UseCase.visualizer.mediumVisualizer[0] interferenceRangeLineStyle "\"solid\""
par UseCase.visualizer.mediumVisualizer[0] interferenceRangeLineWidth 1
par UseCase.visualizer.mediumVisualizer[0] autoPowerAxis true
par UseCase.visualizer.mediumVisualizer[0] signalMinPower "inf dBmW"
attr unit dBmW
par UseCase.visualizer.mediumVisualizer[0] signalMaxPower 0dBmW
attr unit dBmW
par UseCase.visualizer.mediumVisualizer[0] signalMinPowerDensity "inf dBmWpMHz"
attr unit dBmWpMHz
par UseCase.visualizer.mediumVisualizer[0] signalMaxPowerDensity "-inf dBmWpMHz"
attr unit dBmWpMHz
par UseCase.visualizer.mediumVisualizer[0] autoTimeAxis true
par UseCase.visualizer.mediumVisualizer[0] signalMinTime 0s
attr unit s
par UseCase.visualizer.mediumVisualizer[0] signalMaxTime 0s
attr unit s
par UseCase.visualizer.mediumVisualizer[0] autoFrequencyAxis true
par UseCase.visualizer.mediumVisualizer[0] signalMinFrequency "inf Hz"
attr unit Hz
par UseCase.visualizer.mediumVisualizer[0] signalMaxFrequency "-inf Hz"
attr unit Hz
par UseCase.visualizer.mediumVisualizer[0] displayMainPowerDensityMap false
par UseCase.visualizer.mediumVisualizer[0] mainPowerDensityMapPixmapDensity 1
par UseCase.visualizer.mediumVisualizer[0] mainPowerDensityMapMinX 0
par UseCase.visualizer.mediumVisualizer[0] mainPowerDensityMapMaxX "nan "
par UseCase.visualizer.mediumVisualizer[0] mainPowerDensityMapMinY 0
par UseCase.visualizer.mediumVisualizer[0] mainPowerDensityMapMaxY "nan "
par UseCase.visualizer.mediumVisualizer[0] mainPowerDensityMapZ 0
par UseCase.visualizer.mediumVisualizer[0] mainPowerDensityMapFigureXTickCount 3
par UseCase.visualizer.mediumVisualizer[0] mainPowerDensityMapFigureYTickCount 3
par UseCase.visualizer.mediumVisualizer[0] displayPowerDensityMaps false
par UseCase.visualizer.mediumVisualizer[0] powerDensityMapMode "\"auto\""
attr enum total,signal,auto
par UseCase.visualizer.mediumVisualizer[0] powerDensityMapPixelMode "\"mean\""
attr enum sample,partition,mean
par UseCase.visualizer.mediumVisualizer[0] powerDensityMapApproximationSize 10
par UseCase.visualizer.mediumVisualizer[0] powerDensityMapCenterFrequency "nan Hz"
attr mutable ""
attr unit Hz
par UseCase.visualizer.mediumVisualizer[0] powerDensityMapBandwidth 0Hz
attr mutable ""
attr unit Hz
par UseCase.visualizer.mediumVisualizer[0] powerDensityMapFigureWidth 200
par UseCase.visualizer.mediumVisualizer[0] powerDensityMapFigureHeight 120
par UseCase.visualizer.mediumVisualizer[0] powerDensityMapPixmapWidth 200
par UseCase.visualizer.mediumVisualizer[0] powerDensityMapPixmapHeight 120
par UseCase.visualizer.mediumVisualizer[0] powerDensityMapZ 0
par UseCase.visualizer.mediumVisualizer[0] powerDensityMapFigureXTickCount 3
par UseCase.visualizer.mediumVisualizer[0] powerDensityMapFigureYTickCount 3
par UseCase.visualizer.mediumVisualizer[0] displaySpectrums false
par UseCase.visualizer.mediumVisualizer[0] spectrumMode "\"auto\""
attr enum total,signal,auto
par UseCase.visualizer.mediumVisualizer[0] spectrumFigureWidth 200
par UseCase.visualizer.mediumVisualizer[0] spectrumFigureHeight 120
par UseCase.visualizer.mediumVisualizer[0] spectrumFigureXTickCount 3
par UseCase.visualizer.mediumVisualizer[0] spectrumFigureYTickCount 5
par UseCase.visualizer.mediumVisualizer[0] spectrumFigureInterpolationSize 5
par UseCase.visualizer.mediumVisualizer[0] spectrumPlacementHint "\"bottomCenter\""
par UseCase.visualizer.mediumVisualizer[0] spectrumPlacementPriority -1
par UseCase.visualizer.mediumVisualizer[0] displaySpectrograms false
par UseCase.visualizer.mediumVisualizer[0] spectrogramMode "\"auto\""
attr enum total,signal,auto
par UseCase.visualizer.mediumVisualizer[0] spectrogramPixelMode "\"mean\""
attr enum sample,partition,mean
par UseCase.visualizer.mediumVisualizer[0] spectrogramFigureWidth 200
par UseCase.visualizer.mediumVisualizer[0] spectrogramFigureHeight 120
par UseCase.visualizer.mediumVisualizer[0] spectrogramPixmapWidth 200
par UseCase.visualizer.mediumVisualizer[0] spectrogramPixmapHeight 120
par UseCase.visualizer.mediumVisualizer[0] spectrogramFigureXTickCount 3
par UseCase.visualizer.mediumVisualizer[0] spectrogramFigureYTickCount 5
par UseCase.visualizer.mediumVisualizer[0] spectrogramPlacementHint "\"bottomCenter\""
par UseCase.visualizer.mediumVisualizer[0] spectrogramPlacementPriority -1
par UseCase.visualizer.mediumVisualizer[0] zIndex 0
par UseCase.visualizer.mediumVisualizer[0] signalShape "\"ring\""
attr enum ring,sphere
par UseCase.visualizer.mediumVisualizer[0] signalOpacity 0.5
par UseCase.visualizer.mediumVisualizer[0] signalRingCount 20
par UseCase.visualizer.mediumVisualizer[0] signalRingSize 50m
attr unit m
par UseCase.visualizer.mediumVisualizer[0] signalFadingDistance 50m
attr unit m
par UseCase.visualizer.mediumVisualizer[0] signalFadingFactor 1.2
par UseCase.visualizer.mediumVisualizer[0] signalWaveCount 20
par UseCase.visualizer.mediumVisualizer[0] signalWaveLength 50m
attr unit m
par UseCase.visualizer.mediumVisualizer[0] signalWaveWidth 10m
attr unit m
par UseCase.visualizer.mediumVisualizer[0] signalWaveFadingAnimationSpeedFactor 1
par UseCase.visualizer.mediumVisualizer[0] displayCommunicationHeat false
par UseCase.visualizer.obstacleLossVisualizer[0] typename "\"inet.visualizer.canvas.physicallayer.TracingObstacleLossCanvasVisualizer\""
par UseCase.visualizer.obstacleLossVisualizer[0] visualizationTargetModule "\"^.^\""
par UseCase.visualizer.obstacleLossVisualizer[0] visualizationSubjectModule "\"^.^\""
par UseCase.visualizer.obstacleLossVisualizer[0] tags "\"\""
par UseCase.visualizer.obstacleLossVisualizer[0] displayIntersections false
par UseCase.visualizer.obstacleLossVisualizer[0] intersectionLineColor "\"red\""
par UseCase.visualizer.obstacleLossVisualizer[0] intersectionLineStyle "\"solid\""
par UseCase.visualizer.obstacleLossVisualizer[0] intersectionLineWidth 1
par UseCase.visualizer.obstacleLossVisualizer[0] displayFaceNormalVectors false
par UseCase.visualizer.obstacleLossVisualizer[0] faceNormalLineColor "\"grey\""
par UseCase.visualizer.obstacleLossVisualizer[0] faceNormalLineStyle "\"solid\""
par UseCase.visualizer.obstacleLossVisualizer[0] faceNormalLineWidth 1
par UseCase.visualizer.obstacleLossVisualizer[0] fadeOutMode "\"realTime\""
attr enum realTime,animationTime,simulationTime
par UseCase.visualizer.obstacleLossVisualizer[0] fadeOutTime 1s
attr unit s
par UseCase.visualizer.obstacleLossVisualizer[0] fadeOutAnimationSpeed 0
par UseCase.visualizer.obstacleLossVisualizer[0] zIndex 0
par UseCase.visualizer.packetDropVisualizer[0] typename "\"inet.visualizer.canvas.common.PacketDropCanvasVisualizer\""
par UseCase.visualizer.packetDropVisualizer[0] visualizationTargetModule "\"^.^\""
par UseCase.visualizer.packetDropVisualizer[0] visualizationSubjectModule "\"^.^\""
par UseCase.visualizer.packetDropVisualizer[0] tags "\"\""
par UseCase.visualizer.packetDropVisualizer[0] displayPacketDrops false
par UseCase.visualizer.packetDropVisualizer[0] nodeFilter "\"*\""
attr mutable ""
par UseCase.visualizer.packetDropVisualizer[0] interfaceFilter "\"*\""
attr mutable ""
par UseCase.visualizer.packetDropVisualizer[0] packetFilter "(omnetpp::cValueHolder)holder: \"*\""
attr mutable ""
par UseCase.visualizer.packetDropVisualizer[0] detailsFilter "\"*\""
attr mutable ""
par UseCase.visualizer.packetDropVisualizer[0] icon "\"msg/packet_s\""
par UseCase.visualizer.packetDropVisualizer[0] iconTintAmount 1
par UseCase.visualizer.packetDropVisualizer[0] iconTintColor "\"dark\""
par UseCase.visualizer.packetDropVisualizer[0] labelFormat "\"%n\""
attr mutable ""
par UseCase.visualizer.packetDropVisualizer[0] labelFont "\"<default>\""
par UseCase.visualizer.packetDropVisualizer[0] labelColor "\"black\""
par UseCase.visualizer.packetDropVisualizer[0] fadeOutMode "\"realTime\""
attr enum realTime,animationTime,simulationTime
par UseCase.visualizer.packetDropVisualizer[0] fadeOutTime 1s
attr unit s
par UseCase.visualizer.packetDropVisualizer[0] fadeOutAnimationSpeed 0
par UseCase.visualizer.packetDropVisualizer[0] zIndex 10
par UseCase.visualizer.packetDropVisualizer[0] dx 32
par UseCase.visualizer.packetDropVisualizer[0] dy 64
par UseCase.visualizer.queueVisualizer[0] typename "\"inet.visualizer.canvas.common.QueueCanvasVisualizer\""
par UseCase.visualizer.queueVisualizer[0] visualizationTargetModule "\"^.^\""
par UseCase.visualizer.queueVisualizer[0] visualizationSubjectModule "\"^.^\""
par UseCase.visualizer.queueVisualizer[0] tags "\"\""
par UseCase.visualizer.queueVisualizer[0] networkNodeVisualizerModule "\"UseCase.visualizer.networkNodeVisualizer[0]\""
par UseCase.visualizer.queueVisualizer[0] displayQueues false
par UseCase.visualizer.queueVisualizer[0] queueFilter "\"**\""
par UseCase.visualizer.queueVisualizer[0] color "\"blue\""
par UseCase.visualizer.queueVisualizer[0] width 8
par UseCase.visualizer.queueVisualizer[0] height 24
par UseCase.visualizer.queueVisualizer[0] spacing 2
par UseCase.visualizer.queueVisualizer[0] placementHint "\"right\""
par UseCase.visualizer.queueVisualizer[0] placementPriority 0
par UseCase.visualizer.queueVisualizer[0] zIndex 10
par UseCase.visualizer.gateScheduleVisualizer[0] typename "\"inet.visualizer.canvas.common.GateScheduleCanvasVisualizer\""
par UseCase.visualizer.gateScheduleVisualizer[0] visualizationTargetModule "\"^.^\""
par UseCase.visualizer.gateScheduleVisualizer[0] visualizationSubjectModule "\"^.^\""
par UseCase.visualizer.gateScheduleVisualizer[0] tags "\"\""
par UseCase.visualizer.gateScheduleVisualizer[0] networkNodeVisualizerModule "\"UseCase.visualizer.networkNodeVisualizer[0]\""
par UseCase.visualizer.gateScheduleVisualizer[0] displayGateSchedules false
par UseCase.visualizer.gateScheduleVisualizer[0] labelFormat "\"%i %D\""
par UseCase.visualizer.gateScheduleVisualizer[0] gateFilter "\"**\""
par UseCase.visualizer.gateScheduleVisualizer[0] width 100
par UseCase.visualizer.gateScheduleVisualizer[0] height 8
par UseCase.visualizer.gateScheduleVisualizer[0] spacing 2
par UseCase.visualizer.gateScheduleVisualizer[0] placementHint "\"right\""
par UseCase.visualizer.gateScheduleVisualizer[0] placementPriority 0
par UseCase.visualizer.gateScheduleVisualizer[0] displayDuration 0s
attr mutable ""
attr unit s
par UseCase.visualizer.gateScheduleVisualizer[0] currentTimePosition 50
par UseCase.visualizer.gateScheduleVisualizer[0] zIndex 10
par UseCase.visualizer.radioVisualizer[0] typename "\"inet.visualizer.canvas.physicallayer.RadioCanvasVisualizer\""
par UseCase.visualizer.radioVisualizer[0] visualizationTargetModule "\"^.^\""
par UseCase.visualizer.radioVisualizer[0] visualizationSubjectModule "\"^.^\""
par UseCase.visualizer.radioVisualizer[0] tags "\"\""
par UseCase.visualizer.radioVisualizer[0] networkNodeVisualizerModule "\"UseCase.visualizer.networkNodeVisualizer[0]\""
par UseCase.visualizer.radioVisualizer[0] displayRadios false
par UseCase.visualizer.radioVisualizer[0] displayRadioMode true
par UseCase.visualizer.radioVisualizer[0] displayReceptionState true
par UseCase.visualizer.radioVisualizer[0] displayTransmissionState true
par UseCase.visualizer.radioVisualizer[0] displayAntennaLobes false
par UseCase.visualizer.radioVisualizer[0] radioFilter "\"**\""
attr mutable ""
par UseCase.visualizer.radioVisualizer[0] radioModeImages "\"block/process_vs block/timer_vs block/wrx_vs block/wtx_vs block/wrxtx_vs block/cogwheel_vs\""
par UseCase.visualizer.radioVisualizer[0] receptionStateImages "\"- - misc/receiving misc/receiving\""
par UseCase.visualizer.radioVisualizer[0] transmissionStateImages "\"- - misc/transmitting\""
par UseCase.visualizer.radioVisualizer[0] width 16
par UseCase.visualizer.radioVisualizer[0] height 16
par UseCase.visualizer.radioVisualizer[0] placementHint "\"bottomRight\""
par UseCase.visualizer.radioVisualizer[0] placementPriority 0
par UseCase.visualizer.radioVisualizer[0] antennaLobeNormalize false
par UseCase.visualizer.radioVisualizer[0] antennaLobeRelativeLabels false
par UseCase.visualizer.radioVisualizer[0] antennaLobePlaneGlobal true
par UseCase.visualizer.radioVisualizer[0] antennaLobePlane "\"view\""
attr enum view,xy,xz,yz
par UseCase.visualizer.radioVisualizer[0] antennaLobeMode "\"logarithmic\""
attr enum logarithmic,linear
par UseCase.visualizer.radioVisualizer[0] antennaLobeLogarithmicBase 10
par UseCase.visualizer.radioVisualizer[0] antennaLobeLogarithmicScale 100
par UseCase.visualizer.radioVisualizer[0] antennaLobeRadius 100
par UseCase.visualizer.radioVisualizer[0] antennaLobeStep 10deg
attr unit deg
par UseCase.visualizer.radioVisualizer[0] antennaLobeOpacity 0.25
par UseCase.visualizer.radioVisualizer[0] antennaLobeLineSmooth true
par UseCase.visualizer.radioVisualizer[0] antennaLobeLineColor "\"black\""
par UseCase.visualizer.radioVisualizer[0] antennaLobeLineStyle "\"solid\""
par UseCase.visualizer.radioVisualizer[0] antennaLobeLineWidth 1
par UseCase.visualizer.radioVisualizer[0] antennaLobeFillColor "\"white\""
par UseCase.visualizer.radioVisualizer[0] zIndex 10
par UseCase.visualizer.physicalLinkVisualizer[0] typename "\"inet.visualizer.canvas.physicallayer.PhysicalLinkCanvasVisualizer\""
par UseCase.visualizer.physicalLinkVisualizer[0] visualizationTargetModule "\"^.^\""
par UseCase.visualizer.physicalLinkVisualizer[0] visualizationSubjectModule "\"^.^\""
par UseCase.visualizer.physicalLinkVisualizer[0] tags "\"\""
par UseCase.visualizer.physicalLinkVisualizer[0] displayLinks false
par UseCase.visualizer.physicalLinkVisualizer[0] activityLevel "\"service\""
attr enum service,peer,protocol
par UseCase.visualizer.physicalLinkVisualizer[0] nodeFilter "\"*\""
attr mutable ""
par UseCase.visualizer.physicalLinkVisualizer[0] interfaceFilter "\"*\""
attr mutable ""
par UseCase.visualizer.physicalLinkVisualizer[0] packetFilter "(omnetpp::cValueHolder)holder: \"*\""
attr mutable ""
par UseCase.visualizer.physicalLinkVisualizer[0] lineColor "\"olive\""
par UseCase.visualizer.physicalLinkVisualizer[0] lineStyle "\"dotted\""
par UseCase.visualizer.physicalLinkVisualizer[0] lineWidth 3
par UseCase.visualizer.physicalLinkVisualizer[0] lineShift 16
par UseCase.visualizer.physicalLinkVisualizer[0] lineShiftMode "\"normal\""
par UseCase.visualizer.physicalLinkVisualizer[0] lineContactSpacing 3
par UseCase.visualizer.physicalLinkVisualizer[0] lineContactMode "\"rectangular\""
attr enum circular,rectangular
par UseCase.visualizer.physicalLinkVisualizer[0] labelFormat "\"%n\""
par UseCase.visualizer.physicalLinkVisualizer[0] labelFont "\"<default>, 8px\""
par UseCase.visualizer.physicalLinkVisualizer[0] labelColor "\"olive\""
par UseCase.visualizer.physicalLinkVisualizer[0] fadeOutMode "\"realTime\""
attr enum realTime,animationTime,simulationTime
par UseCase.visualizer.physicalLinkVisualizer[0] fadeOutTime 1s
attr unit s
par UseCase.visualizer.physicalLinkVisualizer[0] fadeOutAnimationSpeed 0
par UseCase.visualizer.physicalLinkVisualizer[0] holdAnimationTime 0s
attr unit s
par UseCase.visualizer.physicalLinkVisualizer[0] zIndex 1
par UseCase.visualizer.interfaceTableVisualizer[0] typename "\"inet.visualizer.canvas.linklayer.InterfaceTableCanvasVisualizer\""
par UseCase.visualizer.interfaceTableVisualizer[0] visualizationTargetModule "\"^.^\""
par UseCase.visualizer.interfaceTableVisualizer[0] visualizationSubjectModule "\"^.^\""
par UseCase.visualizer.interfaceTableVisualizer[0] tags "\"\""
par UseCase.visualizer.interfaceTableVisualizer[0] networkNodeVisualizerModule "\"UseCase.visualizer.networkNodeVisualizer[0]\""
par UseCase.visualizer.interfaceTableVisualizer[0] displayInterfaceTables false
par UseCase.visualizer.interfaceTableVisualizer[0] displayWiredInterfacesAtConnections true
par UseCase.visualizer.interfaceTableVisualizer[0] displayBackground false
par UseCase.visualizer.interfaceTableVisualizer[0] nodeFilter "\"*\""
attr mutable ""
par UseCase.visualizer.interfaceTableVisualizer[0] interfaceFilter "\"not(lo*)\""
attr mutable ""
par UseCase.visualizer.interfaceTableVisualizer[0] format "\"%N %\\\\%a%/%l\""
attr mutable ""
par UseCase.visualizer.interfaceTableVisualizer[0] placementHint "\"top\""
par UseCase.visualizer.interfaceTableVisualizer[0] placementPriority 0
par UseCase.visualizer.interfaceTableVisualizer[0] font "\"<default>\""
par UseCase.visualizer.interfaceTableVisualizer[0] textColor "\"#005030\""
par UseCase.visualizer.interfaceTableVisualizer[0] backgroundColor "\"white\""
par UseCase.visualizer.interfaceTableVisualizer[0] opacity 1
par UseCase.visualizer.interfaceTableVisualizer[0] zIndex 10
par UseCase.visualizer.dataLinkVisualizer[0] typename "\"inet.visualizer.canvas.linklayer.DataLinkCanvasVisualizer\""
par UseCase.visualizer.dataLinkVisualizer[0] visualizationTargetModule "\"^.^\""
par UseCase.visualizer.dataLinkVisualizer[0] visualizationSubjectModule "\"^.^\""
par UseCase.visualizer.dataLinkVisualizer[0] tags "\"\""
par UseCase.visualizer.dataLinkVisualizer[0] displayLinks false
par UseCase.visualizer.dataLinkVisualizer[0] activityLevel "\"service\""
attr enum service,peer,protocol
par UseCase.visualizer.dataLinkVisualizer[0] nodeFilter "\"*\""
attr mutable ""
par UseCase.visualizer.dataLinkVisualizer[0] interfaceFilter "\"*\""
attr mutable ""
par UseCase.visualizer.dataLinkVisualizer[0] packetFilter "(omnetpp::cValueHolder)holder: \"*\""
attr mutable ""
par UseCase.visualizer.dataLinkVisualizer[0] lineColor "\"darkcyan\""
par UseCase.visualizer.dataLinkVisualizer[0] lineStyle "\"solid\""
par UseCase.visualizer.dataLinkVisualizer[0] lineWidth 3
par UseCase.visualizer.dataLinkVisualizer[0] lineShift 16
par UseCase.visualizer.dataLinkVisualizer[0] lineShiftMode "\"normal\""
par UseCase.visualizer.dataLinkVisualizer[0] lineContactSpacing 3
par UseCase.visualizer.dataLinkVisualizer[0] lineContactMode "\"rectangular\""
attr enum circular,rectangular
par UseCase.visualizer.dataLinkVisualizer[0] labelFormat "\"%n\""
par UseCase.visualizer.dataLinkVisualizer[0] labelFont "\"<default>, 8px\""
par UseCase.visualizer.dataLinkVisualizer[0] labelColor "\"darkcyan\""
par UseCase.visualizer.dataLinkVisualizer[0] fadeOutMode "\"realTime\""
attr enum realTime,animationTime,simulationTime
par UseCase.visualizer.dataLinkVisualizer[0] fadeOutTime 1s
attr unit s
par UseCase.visualizer.dataLinkVisualizer[0] fadeOutAnimationSpeed 0
par UseCase.visualizer.dataLinkVisualizer[0] holdAnimationTime 0s
attr unit s
par UseCase.visualizer.dataLinkVisualizer[0] zIndex 2
par UseCase.visualizer.linkBreakVisualizer[0] typename "\"inet.visualizer.canvas.linklayer.LinkBreakCanvasVisualizer\""
par UseCase.visualizer.linkBreakVisualizer[0] visualizationTargetModule "\"^.^\""
par UseCase.visualizer.linkBreakVisualizer[0] visualizationSubjectModule "\"^.^\""
par UseCase.visualizer.linkBreakVisualizer[0] tags "\"\""
par UseCase.visualizer.linkBreakVisualizer[0] displayLinkBreaks false
par UseCase.visualizer.linkBreakVisualizer[0] nodeFilter "\"*\""
attr mutable ""
par UseCase.visualizer.linkBreakVisualizer[0] interfaceFilter "\"*\""
attr mutable ""
par UseCase.visualizer.linkBreakVisualizer[0] packetFilter "(omnetpp::cValueHolder)holder: \"*\""
attr mutable ""
par UseCase.visualizer.linkBreakVisualizer[0] icon "\"status/stop\""
par UseCase.visualizer.linkBreakVisualizer[0] iconTintAmount 0
par UseCase.visualizer.linkBreakVisualizer[0] iconTintColor "\"\""
par UseCase.visualizer.linkBreakVisualizer[0] fadeOutMode "\"realTime\""
attr enum realTime,animationTime,simulationTime
par UseCase.visualizer.linkBreakVisualizer[0] fadeOutTime 1s
attr unit s
par UseCase.visualizer.linkBreakVisualizer[0] fadeOutAnimationSpeed 0
par UseCase.visualizer.linkBreakVisualizer[0] zIndex 2
par UseCase.visualizer.ieee80211Visualizer[0] typename "\"inet.visualizer.canvas.linklayer.Ieee80211CanvasVisualizer\""
par UseCase.visualizer.ieee80211Visualizer[0] visualizationTargetModule "\"^.^\""
par UseCase.visualizer.ieee80211Visualizer[0] visualizationSubjectModule "\"^.^\""
par UseCase.visualizer.ieee80211Visualizer[0] tags "\"\""
par UseCase.visualizer.ieee80211Visualizer[0] networkNodeVisualizerModule "\"UseCase.visualizer.networkNodeVisualizer[0]\""
par UseCase.visualizer.ieee80211Visualizer[0] displayAssociations false
par UseCase.visualizer.ieee80211Visualizer[0] nodeFilter "\"*\""
attr mutable ""
par UseCase.visualizer.ieee80211Visualizer[0] interfaceFilter "\"*\""
attr mutable ""
par UseCase.visualizer.ieee80211Visualizer[0] minPower -85dBm
attr unit dBm
par UseCase.visualizer.ieee80211Visualizer[0] maxPower -50dBm
attr unit dBm
par UseCase.visualizer.ieee80211Visualizer[0] icons "\"misc/signal_power_0 misc/signal_power_1 misc/signal_power_2 misc/signal_power_3\""
par UseCase.visualizer.ieee80211Visualizer[0] iconColor "\"dark\""
attr enum light,dark
par UseCase.visualizer.ieee80211Visualizer[0] labelFont "\"<default>\""
par UseCase.visualizer.ieee80211Visualizer[0] labelColor "\"black\""
par UseCase.visualizer.ieee80211Visualizer[0] placementHint "\"top\""
par UseCase.visualizer.ieee80211Visualizer[0] placementPriority 0
par UseCase.visualizer.ieee80211Visualizer[0] zIndex 2
par UseCase.visualizer.networkRouteVisualizer[0] typename "\"inet.visualizer.canvas.networklayer.NetworkRouteCanvasVisualizer\""
par UseCase.visualizer.networkRouteVisualizer[0] visualizationTargetModule "\"^.^\""
par UseCase.visualizer.networkRouteVisualizer[0] visualizationSubjectModule "\"^.^\""
par UseCase.visualizer.networkRouteVisualizer[0] tags "\"\""
par UseCase.visualizer.networkRouteVisualizer[0] displayRoutes false
par UseCase.visualizer.networkRouteVisualizer[0] startPathSignal "\"packetReceivedFromUpper\""
par UseCase.visualizer.networkRouteVisualizer[0] extendPathSignal "\"packetReceivedFromLower\""
par UseCase.visualizer.networkRouteVisualizer[0] endPathSignal "\"packetSentToUpper\""
par UseCase.visualizer.networkRouteVisualizer[0] nodeFilter "\"*\""
attr mutable ""
par UseCase.visualizer.networkRouteVisualizer[0] packetFilter "(omnetpp::cValueHolder)holder: \"*\""
attr mutable ""
par UseCase.visualizer.networkRouteVisualizer[0] lineColor "\"dark\""
attr enum light,dark
par UseCase.visualizer.networkRouteVisualizer[0] lineStyle "\"solid\""
par UseCase.visualizer.networkRouteVisualizer[0] lineWidth 3
par UseCase.visualizer.networkRouteVisualizer[0] lineSmooth false
par UseCase.visualizer.networkRouteVisualizer[0] lineShift 16
par UseCase.visualizer.networkRouteVisualizer[0] lineShiftMode "\"normal\""
par UseCase.visualizer.networkRouteVisualizer[0] lineContactSpacing 3
par UseCase.visualizer.networkRouteVisualizer[0] lineContactMode "\"rectangular\""
attr enum circular,rectangular
par UseCase.visualizer.networkRouteVisualizer[0] labelFormat "\"%n\""
par UseCase.visualizer.networkRouteVisualizer[0] labelFont "\"<default>, 8px\""
par UseCase.visualizer.networkRouteVisualizer[0] labelColor "\"\""
par UseCase.visualizer.networkRouteVisualizer[0] fadeOutMode "\"realTime\""
attr enum realTime,animationTime,simulationTime
par UseCase.visualizer.networkRouteVisualizer[0] fadeOutTime 1s
attr unit s
par UseCase.visualizer.networkRouteVisualizer[0] fadeOutAnimationSpeed 0
par UseCase.visualizer.networkRouteVisualizer[0] zIndex 3
par UseCase.visualizer.routingTableVisualizer[0] typename "\"inet.visualizer.canvas.networklayer.RoutingTableCanvasVisualizer\""
par UseCase.visualizer.routingTableVisualizer[0] visualizationTargetModule "\"^.^\""
par UseCase.visualizer.routingTableVisualizer[0] visualizationSubjectModule "\"^.^\""
par UseCase.visualizer.routingTableVisualizer[0] tags "\"\""
par UseCase.visualizer.routingTableVisualizer[0] displayRoutingTables false
par UseCase.visualizer.routingTableVisualizer[0] displayRoutesIndividually true
par UseCase.visualizer.routingTableVisualizer[0] displayLabels true
par UseCase.visualizer.routingTableVisualizer[0] destinationFilter "\"*\""
attr mutable ""
par UseCase.visualizer.routingTableVisualizer[0] nodeFilter "\"*\""
attr mutable ""
par UseCase.visualizer.routingTableVisualizer[0] lineColor "\"black\""
par UseCase.visualizer.routingTableVisualizer[0] lineStyle "\"solid\""
par UseCase.visualizer.routingTableVisualizer[0] lineWidth 2
par UseCase.visualizer.routingTableVisualizer[0] lineShift 16
par UseCase.visualizer.routingTableVisualizer[0] lineShiftMode "\"normal\""
par UseCase.visualizer.routingTableVisualizer[0] lineContactSpacing 3
par UseCase.visualizer.routingTableVisualizer[0] lineContactMode "\"rectangular\""
attr enum circular,rectangular
par UseCase.visualizer.routingTableVisualizer[0] labelFormat "\"%d/%m -> %g (%n)\""
attr mutable ""
par UseCase.visualizer.routingTableVisualizer[0] labelFont "\"<default>, 8px\""
par UseCase.visualizer.routingTableVisualizer[0] labelColor "\"black\""
par UseCase.visualizer.routingTableVisualizer[0] zIndex 0
par UseCase.visualizer.transportRouteVisualizer[0] typename "\"inet.visualizer.canvas.transportlayer.TransportRouteCanvasVisualizer\""
par UseCase.visualizer.transportRouteVisualizer[0] visualizationTargetModule "\"^.^\""
par UseCase.visualizer.transportRouteVisualizer[0] visualizationSubjectModule "\"^.^\""
par UseCase.visualizer.transportRouteVisualizer[0] tags "\"\""
par UseCase.visualizer.transportRouteVisualizer[0] displayRoutes false
par UseCase.visualizer.transportRouteVisualizer[0] startPathSignal "\"packetReceivedFromUpper\""
par UseCase.visualizer.transportRouteVisualizer[0] extendPathSignal "\"packetReceivedFromLower\""
par UseCase.visualizer.transportRouteVisualizer[0] endPathSignal "\"packetSentToUpper\""
par UseCase.visualizer.transportRouteVisualizer[0] nodeFilter "\"*\""
attr mutable ""
par UseCase.visualizer.transportRouteVisualizer[0] packetFilter "(omnetpp::cValueHolder)holder: \"*\""
attr mutable ""
par UseCase.visualizer.transportRouteVisualizer[0] lineColor "\"dark\""
attr enum light,dark
par UseCase.visualizer.transportRouteVisualizer[0] lineStyle "\"solid\""
par UseCase.visualizer.transportRouteVisualizer[0] lineWidth 3
par UseCase.visualizer.transportRouteVisualizer[0] lineSmooth false
par UseCase.visualizer.transportRouteVisualizer[0] lineShift 16
par UseCase.visualizer.transportRouteVisualizer[0] lineShiftMode "\"normal\""
par UseCase.visualizer.transportRouteVisualizer[0] lineContactSpacing 3
par UseCase.visualizer.transportRouteVisualizer[0] lineContactMode "\"rectangular\""
attr enum circular,rectangular
par UseCase.visualizer.transportRouteVisualizer[0] labelFormat "\"%n\""
par UseCase.visualizer.transportRouteVisualizer[0] labelFont "\"<default>, 8px\""
par UseCase.visualizer.transportRouteVisualizer[0] labelColor "\"\""
par UseCase.visualizer.transportRouteVisualizer[0] fadeOutMode "\"realTime\""
attr enum realTime,animationTime,simulationTime
par UseCase.visualizer.transportRouteVisualizer[0] fadeOutTime 1s
attr unit s
par UseCase.visualizer.transportRouteVisualizer[0] fadeOutAnimationSpeed 0
par UseCase.visualizer.transportRouteVisualizer[0] zIndex 4
par UseCase.visualizer.transportConnectionVisualizer[0] typename "\"inet.visualizer.canvas.transportlayer.TransportConnectionCanvasVisualizer\""
par UseCase.visualizer.transportConnectionVisualizer[0] visualizationTargetModule "\"^.^\""
par UseCase.visualizer.transportConnectionVisualizer[0] visualizationSubjectModule "\"^.^\""
par UseCase.visualizer.transportConnectionVisualizer[0] tags "\"\""
par UseCase.visualizer.transportConnectionVisualizer[0] networkNodeVisualizerModule "\"UseCase.visualizer.networkNodeVisualizer[0]\""
par UseCase.visualizer.transportConnectionVisualizer[0] displayTransportConnections false
par UseCase.visualizer.transportConnectionVisualizer[0] sourceNodeFilter "\"*\""
attr mutable ""
par UseCase.visualizer.transportConnectionVisualizer[0] sourcePortFilter "\"*\""
attr mutable ""
par UseCase.visualizer.transportConnectionVisualizer[0] destinationNodeFilter "\"*\""
attr mutable ""
par UseCase.visualizer.transportConnectionVisualizer[0] destinationPortFilter "\"*\""
attr mutable ""
par UseCase.visualizer.transportConnectionVisualizer[0] icon "\"misc/marker_s\""
par UseCase.visualizer.transportConnectionVisualizer[0] iconColor "\"dark\""
attr enum light,dark
par UseCase.visualizer.transportConnectionVisualizer[0] labelFont "\"<default>\""
par UseCase.visualizer.transportConnectionVisualizer[0] labelColor "\"black\""
par UseCase.visualizer.transportConnectionVisualizer[0] placementHint "\"top\""
par UseCase.visualizer.transportConnectionVisualizer[0] placementPriority 0
par UseCase.visualizer.transportConnectionVisualizer[0] zIndex 4
par UseCase.visualizer.failureProtectionConfigurationVisualizer[0] typename "\"inet.visualizer.canvas.configurator.FailureProtectionConfigurationCanvasVisualizer\""
par UseCase.visualizer.failureProtectionConfigurationVisualizer[0] visualizationTargetModule "\"^.^\""
par UseCase.visualizer.failureProtectionConfigurationVisualizer[0] visualizationSubjectModule "\"^.^\""
par UseCase.visualizer.failureProtectionConfigurationVisualizer[0] tags "\"\""
par UseCase.visualizer.failureProtectionConfigurationVisualizer[0] displayTrees false
par UseCase.visualizer.failureProtectionConfigurationVisualizer[0] lineColor "\"dark\""
attr enum light,dark
par UseCase.visualizer.failureProtectionConfigurationVisualizer[0] lineStyle "\"solid\""
par UseCase.visualizer.failureProtectionConfigurationVisualizer[0] lineWidth 3
par UseCase.visualizer.failureProtectionConfigurationVisualizer[0] lineSmooth false
par UseCase.visualizer.failureProtectionConfigurationVisualizer[0] lineShift 16
par UseCase.visualizer.failureProtectionConfigurationVisualizer[0] lineShiftMode "\"normal\""
par UseCase.visualizer.failureProtectionConfigurationVisualizer[0] lineContactSpacing 3
par UseCase.visualizer.failureProtectionConfigurationVisualizer[0] lineContactMode "\"rectangular\""
attr enum circular,rectangular
par UseCase.visualizer.failureProtectionConfigurationVisualizer[0] failureProtectionConfiguratorModule "\"failureProtectionConfigurator\""
par UseCase.visualizer.failureProtectionConfigurationVisualizer[0] streamFilter "\"*\""
par UseCase.visualizer.failureProtectionConfigurationVisualizer[0] zIndex 3
par UseCase.visualizer.streamRedundancyConfigurationVisualizer[0] typename "\"inet.visualizer.canvas.configurator.StreamRedundancyConfigurationCanvasVisualizer\""
par UseCase.visualizer.streamRedundancyConfigurationVisualizer[0] visualizationTargetModule "\"^.^\""
par UseCase.visualizer.streamRedundancyConfigurationVisualizer[0] visualizationSubjectModule "\"^.^\""
par UseCase.visualizer.streamRedundancyConfigurationVisualizer[0] tags "\"\""
par UseCase.visualizer.streamRedundancyConfigurationVisualizer[0] displayTrees false
par UseCase.visualizer.streamRedundancyConfigurationVisualizer[0] lineColor "\"dark\""
attr enum light,dark
par UseCase.visualizer.streamRedundancyConfigurationVisualizer[0] lineStyle "\"solid\""
par UseCase.visualizer.streamRedundancyConfigurationVisualizer[0] lineWidth 3
par UseCase.visualizer.streamRedundancyConfigurationVisualizer[0] lineSmooth false
par UseCase.visualizer.streamRedundancyConfigurationVisualizer[0] lineShift 16
par UseCase.visualizer.streamRedundancyConfigurationVisualizer[0] lineShiftMode "\"normal\""
par UseCase.visualizer.streamRedundancyConfigurationVisualizer[0] lineContactSpacing 3
par UseCase.visualizer.streamRedundancyConfigurationVisualizer[0] lineContactMode "\"rectangular\""
attr enum circular,rectangular
par UseCase.visualizer.streamRedundancyConfigurationVisualizer[0] streamRedundancyConfiguratorModule "\"streamRedundancyConfigurator\""
par UseCase.visualizer.streamRedundancyConfigurationVisualizer[0] streamFilter "\"*\""
par UseCase.visualizer.streamRedundancyConfigurationVisualizer[0] zIndex 3
par UseCase.visualizer typename "\"inet.visualizer.canvas.integrated.IntegratedMultiCanvasVisualizer\""
par UseCase.visualizer numSceneVisualizers 1
par UseCase.visualizer numPhysicalEnvironmentVisualizers 1
par UseCase.visualizer numNetworkNodeVisualizers 1
par UseCase.visualizer numNetworkConnectionVisualizers 1
par UseCase.visualizer numMobilityVisualizers 1
par UseCase.visualizer numStatisticVisualizers 1
par UseCase.visualizer numInfoVisualizers 4
par UseCase.visualizer numEnergyStorageVisualizers 1
par UseCase.visualizer numMediumVisualizers 1
par UseCase.visualizer numObstacleLossVisualizers 1
par UseCase.visualizer numPacketDropVisualizers 1
par UseCase.visualizer numQueueVisualizers 1
par UseCase.visualizer numGateScheduleVisualizers 1
par UseCase.visualizer numRadioVisualizers 1
par UseCase.visualizer numPhysicalLinkVisualizers 1
par UseCase.visualizer numInterfaceTableVisualizers 1
par UseCase.visualizer numDataLinkVisualizers 1
par UseCase.visualizer numLinkBreakVisualizers 1
par UseCase.visualizer numIeee80211Visualizers 1
par UseCase.visualizer numNetworkRouteVisualizers 1
par UseCase.visualizer numRoutingTableVisualizers 1
par UseCase.visualizer numTransportRouteVisualizers 1
par UseCase.visualizer numTransportConnectionVisualizers 1
par UseCase.visualizer numFailureProtectionConfigurationVisualizers 1
par UseCase.visualizer numStreamRedundancyConfigurationVisualizers 1
par UseCase.configurator typename "\"inet.networklayer.configurator.ipv4.Ipv4NetworkConfigurator\""
par UseCase.configurator minLinkWeight 0.001
par UseCase.configurator configureIsolatedNetworksSeparatly false
par UseCase.configurator config "<config>...</config> at content:1"
par UseCase.configurator assignAddresses true
par UseCase.configurator assignUniqueAddresses true
par UseCase.configurator assignDisjunctSubnetAddresses true
par UseCase.configurator addStaticRoutes true
par UseCase.configurator addDefaultRoutes true
par UseCase.configurator addSubnetRoutes true
par UseCase.configurator addDirectRoutes true
par UseCase.configurator optimizeRoutes true
par UseCase.configurator dumpTopology false
par UseCase.configurator dumpLinks false
par UseCase.configurator dumpAddresses false
par UseCase.configurator dumpRoutes false
par UseCase.configurator dumpConfig "\"\""
par UseCase.channelControl typename "\"simu5g.world.radio.LteChannelControl\""
par UseCase.channelControl coreDebug false
par UseCase.channelControl pMax 20mW
attr unit mW
par UseCase.channelControl sat -110dBm
attr unit dBm
par UseCase.channelControl alpha 2
par UseCase.channelControl carrierFrequency 2.4e+09Hz
attr unit Hz
par UseCase.channelControl numChannels 1
par UseCase.channelControl propagationModel "\"FreeSpaceModel\""
attr enum FreeSpaceModel,TwoRayGroundModel,RiceModel,RayleighModel,NakagamiModel,LogNormalShadowingModel
par UseCase.binder typename "\"simu5g.common.binder.Binder\""
par UseCase.binder blerShift 0
par UseCase.binder maxDataRatePerRb 1.16Mbps
attr unit Mbps
par UseCase.binder printTrafficGeneratorConfig false
par UseCase.carrierAggregation.componentCarrier[0] typename "\"simu5g.common.carrierAggregation.ComponentCarrier\""
par UseCase.carrierAggregation.componentCarrier[0] carrierFrequency 2GHz
attr unit GHz
par UseCase.carrierAggregation.componentCarrier[0] numBands 6
par UseCase.carrierAggregation.componentCarrier[0] numerologyIndex 0
par UseCase.carrierAggregation.componentCarrier[0] useTdd false
par UseCase.carrierAggregation.componentCarrier[0] tddNumSymbolsDl 7
par UseCase.carrierAggregation.componentCarrier[0] tddNumSymbolsUl 7
par UseCase.carrierAggregation typename "\"simu5g.common.carrierAggregation.CarrierAggregation\""
par UseCase.carrierAggregation numComponentCarriers 1
par UseCase.upf.pppg$i[0].channel typename "\"ned.IdealChannel\""
par UseCase.upf.ppp[0].phys$o.channel typename "\"ned.IdealChannel\""
par UseCase.upf.interfaceTable typename "\"inet.networklayer.common.InterfaceTable\""
par UseCase.upf.interfaceTable displayAddresses false
par UseCase.upf.cb typename "\"inet.common.MessageDispatcher\""
par UseCase.upf.cb displayStringTextFormat "\"processed %p pk (%l)\""
par UseCase.upf.cb forwardServiceRegistration true
par UseCase.upf.cb forwardProtocolRegistration true
par UseCase.upf.bl typename "\"inet.common.MessageDispatcher\""
par UseCase.upf.bl displayStringTextFormat "\"processed %p pk (%l)\""
par UseCase.upf.bl forwardServiceRegistration true
par UseCase.upf.bl forwardProtocolRegistration true
par UseCase.upf.li typename "\"inet.common.MessageDispatcher\""
par UseCase.upf.li displayStringTextFormat "\"processed %p pk (%l)\""
par UseCase.upf.li forwardServiceRegistration true
par UseCase.upf.li forwardProtocolRegistration true
par UseCase.upf.lo[0].upperLayerIn.channel typename "\"ned.IdealChannel\""
par UseCase.upf.lo[0].lo.upperLayerOut.channel typename "\"ned.IdealChannel\""
par UseCase.upf.lo[0].lo typename "\"inet.linklayer.loopback.Loopback\""
par UseCase.upf.lo[0].lo interfaceTableModule "\"UseCase.upf.interfaceTable\""
par UseCase.upf.lo[0].lo mtu 4470B
attr unit B
scalar UseCase.upf.lo[0].lo rcvdPkFromHl:count 0
attr interpolationmode none
attr recordingmode count
attr source packetReceivedFromUpper
attr title "packets received from higher layer, count"
scalar UseCase.upf.lo[0].lo rcvdPkFromHl:sum(packetBytes) 0
attr interpolationmode none
attr recordingmode sum(packetBytes)
attr source packetReceivedFromUpper
attr title "packets received from higher layer, sum(packetBytes)"
scalar UseCase.upf.lo[0].lo passedUpPk:count 0
attr interpolationmode none
attr recordingmode count
attr source packetSentToUpper
attr title "packets passed to higher layer, count"
scalar UseCase.upf.lo[0].lo passedUpPk:sum(packetBytes) 0
attr interpolationmode none
attr recordingmode sum(packetBytes)
attr source packetSentToUpper
attr title "packets passed to higher layer, sum(packetBytes)"
par UseCase.upf.lo[0] typename "\"inet.linklayer.loopback.LoopbackInterface\""
par UseCase.upf.lo[0] displayStringTextFormat "\"%a (%i)\\n%m\""
par UseCase.upf.lo[0] recordPcap false
par UseCase.upf.lo[0] numPcapRecorders 0
par UseCase.upf.lo[0] interfaceTableModule "\"UseCase.upf.interfaceTable\""
scalar UseCase.upf.lo[0] packetDropInterfaceDown:count 0
attr interpolationmode none
attr recordingmode count
attr source packetDropReasonIsInterfaceDown(packetDropped)
attr title "packet drops: interface down, count"
scalar UseCase.upf.lo[0] packetDropInterfaceDown:sum(packetBytes) 0
attr interpolationmode none
attr recordingmode sum(packetBytes)
attr source packetDropReasonIsInterfaceDown(packetDropped)
attr title "packet drops: interface down, sum(packetBytes)"
scalar UseCase.upf.lo[0] packetDropNoCarrier:count 0
attr interpolationmode none
attr recordingmode count
attr source packetDropReasonIsNoCarrier(packetDropped)
attr title "packet drops: no carrier, count"
scalar UseCase.upf.lo[0] packetDropNoCarrier:sum(packetBytes) 0
attr interpolationmode none
attr recordingmode sum(packetBytes)
attr source packetDropReasonIsNoCarrier(packetDropped)
attr title "packet drops: no carrier, sum(packetBytes)"
par UseCase.upf.ppp[0].phys$i.channel typename "\"ned.IdealChannel\""
par UseCase.upf.ppp[0].ppp.phys$o.channel typename "\"ned.IdealChannel\""
par UseCase.upf.ppp[0].ppp.upperLayerOut.channel typename "\"ned.IdealChannel\""
par UseCase.upf.ppp[0].upperLayerIn.channel typename "\"ned.IdealChannel\""
par UseCase.upf.ppp[0].queue typename "\"inet.queueing.queue.DropTailQueue\""
par UseCase.upf.ppp[0].queue displayStringTextFormat "\"contains %p pk (%l) pushed %u\\npulled %o removed %r dropped %d\""
par UseCase.upf.ppp[0].queue packetCapacity 10000
par UseCase.upf.ppp[0].queue dataCapacity -1b
attr unit b
par UseCase.upf.ppp[0].queue dropperClass "\"inet::queueing::PacketAtCollectionEndDropper\""
par UseCase.upf.ppp[0].queue comparatorClass "\"\""
par UseCase.upf.ppp[0].queue bufferModule "\"\""
scalar UseCase.upf.ppp[0].queue queueLength:last 0
attr autoWarmupFilter false
attr interpolationmode sample-hold
attr recordingmode last
attr source "warmup(atomic(constant0(packetPushEnded) + count(packetPushStarted) - count(packetPulled) - count(packetRemoved) - count(packetDropped)))"
attr title "queue length, last"
attr unit pk
scalar UseCase.upf.ppp[0].queue queueLength:max 1
attr autoWarmupFilter false
attr interpolationmode sample-hold
attr recordingmode max
attr source "warmup(atomic(constant0(packetPushEnded) + count(packetPushStarted) - count(packetPulled) - count(packetRemoved) - count(packetDropped)))"
attr title "queue length, max"
attr unit pk
scalar UseCase.upf.ppp[0].queue queueLength:timeavg 4.1500951063462e-09
attr autoWarmupFilter false
attr interpolationmode sample-hold
attr recordingmode timeavg
attr source "warmup(atomic(constant0(packetPushEnded) + count(packetPushStarted) - count(packetPulled) - count(packetRemoved) - count(packetDropped)))"
attr title "queue length, timeavg"
attr unit pk
scalar UseCase.upf.ppp[0].queue queueBitLength:last 0
attr autoWarmupFilter false
attr interpolationmode sample-hold
attr recordingmode last
attr source "warmup(atomic(constant0(packetPushEnded) + sum(packetLength(packetPushStarted)) - sum(packetLength(packetPulled)) - sum(packetLength(packetRemoved)) - sum(packetLength(packetDropped))))"
attr title "queue bit length, last"
attr unit b
scalar UseCase.upf.ppp[0].queue queueBitLength:max 944
attr autoWarmupFilter false
attr interpolationmode sample-hold
attr recordingmode max
attr source "warmup(atomic(constant0(packetPushEnded) + sum(packetLength(packetPushStarted)) - sum(packetLength(packetPulled)) - sum(packetLength(packetRemoved)) - sum(packetLength(packetDropped))))"
attr title "queue bit length, max"
attr unit b
scalar UseCase.upf.ppp[0].queue queueBitLength:timeavg 3.9176897803908e-06
attr autoWarmupFilter false
attr interpolationmode sample-hold
attr recordingmode timeavg
attr source "warmup(atomic(constant0(packetPushEnded) + sum(packetLength(packetPushStarted)) - sum(packetLength(packetPulled)) - sum(packetLength(packetRemoved)) - sum(packetLength(packetDropped))))"
attr title "queue bit length, timeavg"
attr unit b
statistic UseCase.upf.ppp[0].queue queueingTime:histogram
field count 418
field mean 2.2966507177033e-10
field stddev 9.3166022499849e-10
field min 0
field max 4e-09
field sum 9.6e-08
field sqrsum 3.84e-16
attr interpolationmode none
attr recordingmode histogram
attr source queueingTime(packetPulled)
attr title "queueing times"
attr unit s
bin	-inf	0
bin	0	394
bin	1e-10	0
bin	2e-10	0
bin	3e-10	0
bin	4e-10	0
bin	5e-10	0
bin	6e-10	0
bin	7e-10	0
bin	8e-10	0
bin	9e-10	0
bin	1e-09	0
bin	1.1e-09	0
bin	1.2e-09	0
bin	1.3e-09	0
bin	1.4e-09	0
bin	1.5e-09	0
bin	1.6e-09	0
bin	1.7e-09	0
bin	1.8e-09	0
bin	1.9e-09	0
bin	2e-09	0
bin	2.1e-09	0
bin	2.2e-09	0
bin	2.3e-09	0
bin	2.4e-09	0
bin	2.5e-09	0
bin	2.6e-09	0
bin	2.7e-09	0
bin	2.8e-09	0
bin	2.9e-09	0
bin	3e-09	0
bin	3.1e-09	0
bin	3.2e-09	0
bin	3.3e-09	0
bin	3.4e-09	0
bin	3.5e-09	0
bin	3.6e-09	0
bin	3.7e-09	0
bin	3.8e-09	0
bin	3.9e-09	24
bin	4e-09	0
bin	4.1e-09	0
bin	4.2e-09	0
bin	4.3e-09	0
bin	4.4e-09	0
bin	4.5e-09	0
bin	4.6e-09	0
bin	4.7e-09	0
bin	4.8e-09	0
bin	4.9e-09	0
bin	5e-09	0
scalar UseCase.upf.ppp[0].queue outgoingPackets:count 418
attr recordingmode count
attr source packetPulled
attr title "outgoing packets, count"
attr unit pk
scalar UseCase.upf.ppp[0].queue outgoingPacketLengths:sum 412352
attr interpolationmode none
attr recordingmode sum
attr source packetLength(packetPulled)
attr title "outgoing packet lengths, sum"
attr unit b
statistic UseCase.upf.ppp[0].queue outgoingPacketLengths:histogram
field count 418
field mean 986.48803827751
field stddev 121.54059471439
field min 864
field max 1120
field sum 412352
field sqrsum 412940288
attr interpolationmode none
attr recordingmode histogram
attr source packetLength(packetPulled)
attr title "outgoing packet lengths"
attr unit b
bin	-inf	0
bin	800	0
bin	805	0
bin	810	0
bin	815	0
bin	820	0
bin	825	0
bin	830	0
bin	835	0
bin	840	0
bin	845	0
bin	850	0
bin	855	0
bin	860	185
bin	865	0
bin	870	0
bin	875	0
bin	880	0
bin	885	0
bin	890	0
bin	895	0
bin	900	0
bin	905	0
bin	910	0
bin	915	0
bin	920	0
bin	925	0
bin	930	0
bin	935	0
bin	940	48
bin	945	0
bin	950	0
bin	955	0
bin	960	0
bin	965	0
bin	970	0
bin	975	0
bin	980	0
bin	985	0
bin	990	0
bin	995	0
bin	1000	0
bin	1005	0
bin	1010	0
bin	1015	0
bin	1020	0
bin	1025	0
bin	1030	0
bin	1035	0
bin	1040	0
bin	1045	0
bin	1050	0
bin	1055	0
bin	1060	0
bin	1065	0
bin	1070	0
bin	1075	0
bin	1080	0
bin	1085	0
bin	1090	0
bin	1095	0
bin	1100	0
bin	1105	0
bin	1110	0
bin	1115	0
bin	1120	185
bin	1125	0
bin	1130	0
bin	1135	0
bin	1140	0
bin	1145	0
bin	1150	0
bin	1155	0
bin	1160	0
bin	1165	0
bin	1170	0
bin	1175	0
bin	1180	0
bin	1185	0
statistic UseCase.upf.ppp[0].queue flowQueueingTime:histogram
field count 0
field mean -nan
field stddev nan
field min nan
field max nan
field sum 0
field sqrsum 0
attr interpolationmode none
attr recordingmode histogram
attr source queueingTime(demuxFlow(packetPulled))
attr title "flow queueing times"
attr unit s
bin	-inf	0
bin	0	0
bin	1	0
scalar UseCase.upf.ppp[0].queue incomingPackets:count 418
attr recordingmode count
attr source packetPushStarted
attr title "incoming packets, count"
attr unit pk
scalar UseCase.upf.ppp[0].queue incomingPacketLengths:sum 412352
attr interpolationmode none
attr recordingmode sum
attr source packetLength(packetPushStarted)
attr title "incoming packet lengths, sum"
attr unit b
statistic UseCase.upf.ppp[0].queue incomingPacketLengths:histogram
field count 418
field mean 986.48803827751
field stddev 121.54059471439
field min 864
field max 1120
field sum 412352
field sqrsum 412940288
attr interpolationmode none
attr recordingmode histogram
attr source packetLength(packetPushStarted)
attr title "incoming packet lengths"
attr unit b
bin	-inf	0
bin	800	0
bin	805	0
bin	810	0
bin	815	0
bin	820	0
bin	825	0
bin	830	0
bin	835	0
bin	840	0
bin	845	0
bin	850	0
bin	855	0
bin	860	185
bin	865	0
bin	870	0
bin	875	0
bin	880	0
bin	885	0
bin	890	0
bin	895	0
bin	900	0
bin	905	0
bin	910	0
bin	915	0
bin	920	0
bin	925	0
bin	930	0
bin	935	0
bin	940	48
bin	945	0
bin	950	0
bin	955	0
bin	960	0
bin	965	0
bin	970	0
bin	975	0
bin	980	0
bin	985	0
bin	990	0
bin	995	0
bin	1000	0
bin	1005	0
bin	1010	0
bin	1015	0
bin	1020	0
bin	1025	0
bin	1030	0
bin	1035	0
bin	1040	0
bin	1045	0
bin	1050	0
bin	1055	0
bin	1060	0
bin	1065	0
bin	1070	0
bin	1075	0
bin	1080	0
bin	1085	0
bin	1090	0
bin	1095	0
bin	1100	0
bin	1105	0
bin	1110	0
bin	1115	0
bin	1120	185
bin	1125	0
bin	1130	0
bin	1135	0
bin	1140	0
bin	1145	0
bin	1150	0
bin	1155	0
bin	1160	0
bin	1165	0
bin	1170	0
bin	1175	0
bin	1180	0
bin	1185	0
scalar UseCase.upf.ppp[0].queue droppedPacketsQueueOverflow:count 0
attr interpolationmode none
attr recordingmode count
attr source packetDropReasonIsQueueOverflow(packetDropped)
attr title "dropped packets: queue overflow, count"
attr unit pk
scalar UseCase.upf.ppp[0].queue droppedPacketLengthsQueueOverflow:sum 0
attr interpolationmode none
attr recordingmode sum
attr source packetLength(packetDropReasonIsQueueOverflow(packetDropped))
attr title "dropped packet lengths: queue overflow, sum"
attr unit b
par UseCase.upf.ppp[0].ppp typename "\"inet.linklayer.ppp.Ppp\""
par UseCase.upf.ppp[0].ppp interfaceTableModule "\"UseCase.upf.interfaceTable\""
par UseCase.upf.ppp[0].ppp displayStringTextFormat "\"rate: %b\\nsent: %s, rcvd: %r\\nqueue: %q, drop: %d\""
par UseCase.upf.ppp[0].ppp sendRawBytes false
par UseCase.upf.ppp[0].ppp mtu 4470B
attr unit B
par UseCase.upf.ppp[0].ppp stopOperationExtraTime -1s
attr unit s
par UseCase.upf.ppp[0].ppp stopOperationTimeout 2s
attr unit s
scalar UseCase.upf.ppp[0].ppp transmissionState:timeavg 1.8837973370223e-06
attr interpolationmode sample-hold
attr recordingmode timeavg
attr source transmissionStateChanged
attr title "tx state, timeavg"
scalar UseCase.upf.ppp[0].ppp rxPkOk:count 24
attr interpolationmode none
attr recordingmode count
attr source rxPkOk
attr title "packets received OK, count"
scalar UseCase.upf.ppp[0].ppp rxPkOk:sum(packetBytes) 3000
attr interpolationmode none
attr recordingmode sum(packetBytes)
attr source rxPkOk
attr title "packets received OK, sum(packetBytes)"
scalar UseCase.upf.ppp[0].ppp txPk:count 418
attr interpolationmode none
attr recordingmode count
attr source packetSentToLower
attr title "packets transmitted, count"
scalar UseCase.upf.ppp[0].ppp txPk:sum(packetBytes) 54470
attr interpolationmode none
attr recordingmode sum(packetBytes)
attr source packetSentToLower
attr title "packets transmitted, sum(packetBytes)"
scalar UseCase.upf.ppp[0].ppp rcvdPkFromHl:count 418
attr interpolationmode none
attr recordingmode count
attr source packetReceivedFromUpper
attr title "packets received from higher layer, count"
scalar UseCase.upf.ppp[0].ppp rcvdPkFromHl:sum(packetBytes) 51544
attr interpolationmode none
attr recordingmode sum(packetBytes)
attr source packetReceivedFromUpper
attr title "packets received from higher layer, sum(packetBytes)"
scalar UseCase.upf.ppp[0].ppp passedUpPk:count 24
attr interpolationmode none
attr recordingmode count
attr source packetSentToUpper
attr title "packets passed to higher layer, count"
scalar UseCase.upf.ppp[0].ppp passedUpPk:sum(packetBytes) 2832
attr interpolationmode none
attr recordingmode sum(packetBytes)
attr source packetSentToUpper
attr title "packets passed to higher layer, sum(packetBytes)"
scalar UseCase.upf.ppp[0].ppp packetDropIncorrectlyReceived:count 0
attr interpolationmode none
attr recordingmode count
attr source packetDropReasonIsIncorrectlyReceived(packetDropped)
attr title "packet drop: incorrectly received, count"
scalar UseCase.upf.ppp[0].ppp packetDropIncorrectlyReceived:sum(packetBytes) 0
attr interpolationmode none
attr recordingmode sum(packetBytes)
attr source packetDropReasonIsIncorrectlyReceived(packetDropped)
attr title "packet drop: incorrectly received, sum(packetBytes)"
scalar UseCase.upf.ppp[0].ppp packetDropInterfaceDown:count 0
attr interpolationmode none
attr recordingmode count
attr source packetDropReasonIsInterfaceDown(packetDropped)
attr title "packet drop: interface down, count"
scalar UseCase.upf.ppp[0].ppp packetDropInterfaceDown:sum(packetBytes) 0
attr interpolationmode none
attr recordingmode sum(packetBytes)
attr source packetDropReasonIsInterfaceDown(packetDropped)
attr title "packet drop: interface down, sum(packetBytes)"
par UseCase.upf.ppp[0] typename "\"inet.linklayer.ppp.PppInterface\""
par UseCase.upf.ppp[0] displayStringTextFormat "\"%a (%i)\\n%m\""
par UseCase.upf.ppp[0] recordPcap false
par UseCase.upf.ppp[0] numPcapRecorders 0
par UseCase.upf.ppp[0] interfaceTableModule "\"UseCase.upf.interfaceTable\""
scalar UseCase.upf.ppp[0] packetDropInterfaceDown:count 0
attr interpolationmode none
attr recordingmode count
attr source packetDropReasonIsInterfaceDown(packetDropped)
attr title "packet drops: interface down, count"
scalar UseCase.upf.ppp[0] packetDropInterfaceDown:sum(packetBytes) 0
attr interpolationmode none
attr recordingmode sum(packetBytes)
attr source packetDropReasonIsInterfaceDown(packetDropped)
attr title "packet drops: interface down, sum(packetBytes)"
scalar UseCase.upf.ppp[0] packetDropNoCarrier:count 0
attr interpolationmode none
attr recordingmode count
attr source packetDropReasonIsNoCarrier(packetDropped)
attr title "packet drops: no carrier, count"
scalar UseCase.upf.ppp[0] packetDropNoCarrier:sum(packetBytes) 0
attr interpolationmode none
attr recordingmode sum(packetBytes)
attr source packetDropReasonIsNoCarrier(packetDropped)
attr title "packet drops: no carrier, sum(packetBytes)"
par UseCase.upf.ipv4.transportIn.channel typename "\"ned.IdealChannel\""
par UseCase.upf.ipv4.up.out[0].channel typename "\"ned.IdealChannel\""
par UseCase.upf.ipv4.lp.out[2].channel typename "\"ned.IdealChannel\""
par UseCase.upf.ipv4.ifIn.channel typename "\"ned.IdealChannel\""
par UseCase.upf.ipv4.configurator typename "\"inet.networklayer.configurator.ipv4.Ipv4NodeConfigurator\""
par UseCase.upf.ipv4.configurator interfaceTableModule "\"UseCase.upf.interfaceTable\""
par UseCase.upf.ipv4.configurator routingTableModule "\"UseCase.upf.ipv4.routingTable\""
par UseCase.upf.ipv4.configurator networkConfiguratorModule "\"configurator\""
par UseCase.upf.ipv4.configurator configureRoutingTable true
par UseCase.upf.ipv4.routingTable typename "\"inet.networklayer.ipv4.Ipv4RoutingTable\""
par UseCase.upf.ipv4.routingTable interfaceTableModule "\"UseCase.upf.interfaceTable\""
par UseCase.upf.ipv4.routingTable routerId "\"auto\""
par UseCase.upf.ipv4.routingTable netmaskRoutes "\"*\""
par UseCase.upf.ipv4.routingTable forwarding true
par UseCase.upf.ipv4.routingTable multicastForwarding false
par UseCase.upf.ipv4.routingTable useAdminDist false
par UseCase.upf.ipv4.routingTable routingFile "\"\""
par UseCase.upf.ipv4.natTable typename "\"inet.networklayer.ipv4.Ipv4NatTable\""
par UseCase.upf.ipv4.natTable networkProtocolModule "\"^.ip\""
par UseCase.upf.ipv4.natTable config "<config/> at content:1"
par UseCase.upf.ipv4.up typename "\"inet.common.MessageDispatcher\""
par UseCase.upf.ipv4.up displayStringTextFormat "\"processed %p pk (%l)\""
par UseCase.upf.ipv4.up forwardServiceRegistration true
par UseCase.upf.ipv4.up forwardProtocolRegistration true
par UseCase.upf.ipv4.igmp typename "\"inet.networklayer.ipv4.Igmpv2\""
par UseCase.upf.ipv4.igmp interfaceTableModule "\"UseCase.upf.interfaceTable\""
par UseCase.upf.ipv4.igmp routingTableModule "\"UseCase.upf.ipv4.routingTable\""
par UseCase.upf.ipv4.igmp crcMode "\"declared\""
attr enum declared,computed
par UseCase.upf.ipv4.igmp enabled true
par UseCase.upf.ipv4.igmp robustnessVariable 2
par UseCase.upf.ipv4.igmp queryInterval 125s
attr unit s
par UseCase.upf.ipv4.igmp queryResponseInterval 10s
attr unit s
par UseCase.upf.ipv4.igmp groupMembershipInterval 260s
attr unit s
par UseCase.upf.ipv4.igmp otherQuerierPresentInterval 255s
attr unit s
par UseCase.upf.ipv4.igmp startupQueryInterval 31.25s
attr unit s
par UseCase.upf.ipv4.igmp startupQueryCount 2
par UseCase.upf.ipv4.igmp lastMemberQueryInterval 1s
attr unit s
par UseCase.upf.ipv4.igmp lastMemberQueryCount 2
par UseCase.upf.ipv4.igmp unsolicitedReportInterval 10s
attr unit s
par UseCase.upf.ipv4.icmp typename "\"inet.networklayer.ipv4.Icmp\""
par UseCase.upf.ipv4.icmp interfaceTableModule "\"UseCase.upf.interfaceTable\""
par UseCase.upf.ipv4.icmp routingTableModule "\"UseCase.upf.ipv4.routingTable\""
[...]
attr unit b
bin	-inf	0
bin	639	0
bin	640	24
bin	641	0
scalar UseCase.endHost.eth[0].phyLayer.inboundEmitter flowIncomingPacketLengths:sum 0
attr interpolationmode none
attr recordingmode sum
attr source "packetLength(demuxFlow(merge(packetPushedIn, packetPulledIn)))"
attr title "flow specific incoming packet lengths, sum"
attr unit b
statistic UseCase.endHost.eth[0].phyLayer.inboundEmitter flowIncomingPacketLengths:histogram
field count 0
field mean -nan
field stddev nan
field min nan
field max nan
field sum 0
field sqrsum 0
attr interpolationmode none
attr recordingmode histogram
attr source "packetLength(demuxFlow(merge(packetPushedIn, packetPulledIn)))"
attr title "flow specific incoming packet lengths"
attr unit b
bin	-inf	0
bin	0	0
bin	1	0
par UseCase.endHost.eth[0].phyLayer.receiver typename "\"inet.protocolelement.transceiver.PacketReceiver\""
par UseCase.endHost.eth[0].phyLayer.receiver displayStringTextFormat "\"processed %p pk (%l)\""
par UseCase.endHost.eth[0].phyLayer.receiver datarate 1e+10bps
attr unit bps
statistic UseCase.endHost.eth[0].phyLayer.receiver throughput:histogram
field count 232
field mean 662.06896551724
field stddev 1953.2924883403
field min 0
field max 6400
field sum 153600
field sqrsum 983040000
attr interpolationmode linear
attr recordingmode histogram
attr source throughput(receptionEnded)
attr title throughput
attr unit bps
bin	-inf	0
bin	0	208
bin	100	0
bin	200	0
bin	300	0
bin	400	0
bin	500	0
bin	600	0
bin	700	0
bin	800	0
bin	900	0
bin	1000	0
bin	1100	0
bin	1200	0
bin	1300	0
bin	1400	0
bin	1500	0
bin	1600	0
bin	1700	0
bin	1800	0
bin	1900	0
bin	2000	0
bin	2100	0
bin	2200	0
bin	2300	0
bin	2400	0
bin	2500	0
bin	2600	0
bin	2700	0
bin	2800	0
bin	2900	0
bin	3000	0
bin	3100	0
bin	3200	0
bin	3300	0
bin	3400	0
bin	3500	0
bin	3600	0
bin	3700	0
bin	3800	0
bin	3900	0
bin	4000	0
bin	4100	0
bin	4200	0
bin	4300	0
bin	4400	0
bin	4500	0
bin	4600	0
bin	4700	0
bin	4800	0
bin	4900	0
bin	5000	0
bin	5100	0
bin	5200	0
bin	5300	0
bin	5400	0
bin	5500	0
bin	5600	0
bin	5700	0
bin	5800	0
bin	5900	0
bin	6000	0
bin	6100	0
bin	6200	0
bin	6300	0
bin	6400	24
bin	6500	0
bin	6600	0
bin	6700	0
bin	6800	0
bin	6900	0
bin	7000	0
bin	7100	0
bin	7200	0
bin	7300	0
bin	7400	0
bin	7500	0
bin	7600	0
bin	7700	0
bin	7800	0
bin	7900	0
bin	8000	0
bin	8100	0
statistic UseCase.endHost.eth[0].phyLayer.receiver receptionTime:histogram
field count 24
field mean 6.4e-08
field stddev 0
field min 6.4e-08
field max 6.4e-08
field sum 1.536e-06
field sqrsum 9.8304e-14
attr interpolationmode none
attr recordingmode histogram
attr source packetDuration(receptionEnded)
attr title "reception time"
attr unit s
bin	-inf	0
bin	0	24
bin	0.01	0
bin	0.02	0
bin	0.03	0
bin	0.04	0
bin	0.05	0
bin	0.06	0
bin	0.07	0
bin	0.08	0
bin	0.09	0
bin	0.1	0
bin	0.11	0
bin	0.12	0
bin	0.13	0
bin	0.14	0
bin	0.15	0
bin	0.16	0
bin	0.17	0
bin	0.18	0
bin	0.19	0
bin	0.2	0
bin	0.21	0
bin	0.22	0
bin	0.23	0
bin	0.24	0
bin	0.25	0
bin	0.26	0
bin	0.27	0
bin	0.28	0
bin	0.29	0
bin	0.3	0
bin	0.31	0
bin	0.32	0
bin	0.33	0
bin	0.34	0
bin	0.35	0
bin	0.36	0
bin	0.37	0
bin	0.38	0
bin	0.39	0
bin	0.4	0
bin	0.41	0
bin	0.42	0
bin	0.43	0
bin	0.44	0
bin	0.45	0
bin	0.46	0
bin	0.47	0
bin	0.48	0
bin	0.49	0
bin	0.5	0
bin	0.51	0
statistic UseCase.endHost.eth[0].phyLayer.receiver flowReceptionTime:histogram
field count 0
field mean -nan
field stddev nan
field min nan
field max nan
field sum 0
field sqrsum 0
attr interpolationmode none
attr recordingmode histogram
attr source packetDuration(demuxFlow(receptionEnded))
attr title "flow reception time"
attr unit s
bin	-inf	0
bin	0	0
bin	1	0
par UseCase.endHost.eth[0].phyLayer typename "\"inet.physicallayer.wired.ethernet.EthernetPhyLayer\""
par UseCase.endHost.eth[0].phyLayer bitrate this.bitrate
attr unit bps
par UseCase.endHost.eth[0] typename "\"inet.linklayer.ethernet.LayeredEthernetInterface\""
par UseCase.endHost.eth[0] displayStringTextFormat "\"%a (%i)\\n%m\""
par UseCase.endHost.eth[0] recordPcap false
par UseCase.endHost.eth[0] numPcapRecorders 0
par UseCase.endHost.eth[0] protocol "\"ethernetmac\""
par UseCase.endHost.eth[0] broadcast true
par UseCase.endHost.eth[0] multicast true
par UseCase.endHost.eth[0] address "\"0A-AA-00-00-00-0E\""
attr mutable ""
par UseCase.endHost.eth[0] bitrate 1e+10bps
attr unit bps
par UseCase.endHost.eth[0] mtu 1500B
attr unit B
par UseCase.endHost.eth[0] interfaceTableModule "\"UseCase.endHost.interfaceTable\""
scalar UseCase.endHost.eth[0] packetDropInterfaceDown:count 0
attr interpolationmode none
attr recordingmode count
attr source packetDropReasonIsInterfaceDown(packetDropped)
attr title "packet drops: interface down, count"
scalar UseCase.endHost.eth[0] packetDropInterfaceDown:sum(packetBytes) 0
attr interpolationmode none
attr recordingmode sum(packetBytes)
attr source packetDropReasonIsInterfaceDown(packetDropped)
attr title "packet drops: interface down, sum(packetBytes)"
scalar UseCase.endHost.eth[0] packetDropNoCarrier:count 0
attr interpolationmode none
attr recordingmode count
attr source packetDropReasonIsNoCarrier(packetDropped)
attr title "packet drops: no carrier, count"
scalar UseCase.endHost.eth[0] packetDropNoCarrier:sum(packetBytes) 0
attr interpolationmode none
attr recordingmode sum(packetBytes)
attr source packetDropReasonIsNoCarrier(packetDropped)
attr title "packet drops: no carrier, sum(packetBytes)"
par UseCase.endHost.ipv4.transportIn.channel typename "\"ned.IdealChannel\""
par UseCase.endHost.ipv4.up.out[0].channel typename "\"ned.IdealChannel\""
par UseCase.endHost.ipv4.lp.out[2].channel typename "\"ned.IdealChannel\""
par UseCase.endHost.ipv4.ifIn.channel typename "\"ned.IdealChannel\""
par UseCase.endHost.ipv4.configurator typename "\"inet.networklayer.configurator.ipv4.Ipv4NodeConfigurator\""
par UseCase.endHost.ipv4.configurator interfaceTableModule "\"UseCase.endHost.interfaceTable\""
par UseCase.endHost.ipv4.configurator routingTableModule "\"UseCase.endHost.ipv4.routingTable\""
par UseCase.endHost.ipv4.configurator networkConfiguratorModule "\"configurator\""
par UseCase.endHost.ipv4.configurator configureRoutingTable true
par UseCase.endHost.ipv4.routingTable typename "\"inet.networklayer.ipv4.Ipv4RoutingTable\""
par UseCase.endHost.ipv4.routingTable interfaceTableModule "\"UseCase.endHost.interfaceTable\""
par UseCase.endHost.ipv4.routingTable routerId "\"auto\""
par UseCase.endHost.ipv4.routingTable netmaskRoutes "\"*\""
par UseCase.endHost.ipv4.routingTable forwarding false
par UseCase.endHost.ipv4.routingTable multicastForwarding false
par UseCase.endHost.ipv4.routingTable useAdminDist false
par UseCase.endHost.ipv4.routingTable routingFile "\"\""
par UseCase.endHost.ipv4.natTable typename "\"inet.networklayer.ipv4.Ipv4NatTable\""
par UseCase.endHost.ipv4.natTable networkProtocolModule "\"^.ip\""
par UseCase.endHost.ipv4.natTable config "<config/> at content:1"
par UseCase.endHost.ipv4.up typename "\"inet.common.MessageDispatcher\""
par UseCase.endHost.ipv4.up displayStringTextFormat "\"processed %p pk (%l)\""
par UseCase.endHost.ipv4.up forwardServiceRegistration true
par UseCase.endHost.ipv4.up forwardProtocolRegistration true
par UseCase.endHost.ipv4.igmp typename "\"inet.networklayer.ipv4.Igmpv2\""
par UseCase.endHost.ipv4.igmp interfaceTableModule "\"UseCase.endHost.interfaceTable\""
par UseCase.endHost.ipv4.igmp routingTableModule "\"UseCase.endHost.ipv4.routingTable\""
par UseCase.endHost.ipv4.igmp crcMode "\"declared\""
attr enum declared,computed
par UseCase.endHost.ipv4.igmp enabled true
par UseCase.endHost.ipv4.igmp robustnessVariable 2
par UseCase.endHost.ipv4.igmp queryInterval 125s
attr unit s
par UseCase.endHost.ipv4.igmp queryResponseInterval 10s
attr unit s
par UseCase.endHost.ipv4.igmp groupMembershipInterval 260s
attr unit s
par UseCase.endHost.ipv4.igmp otherQuerierPresentInterval 255s
attr unit s
par UseCase.endHost.ipv4.igmp startupQueryInterval 31.25s
attr unit s
par UseCase.endHost.ipv4.igmp startupQueryCount 2
par UseCase.endHost.ipv4.igmp lastMemberQueryInterval 1s
attr unit s
par UseCase.endHost.ipv4.igmp lastMemberQueryCount 2
par UseCase.endHost.ipv4.igmp unsolicitedReportInterval 10s
attr unit s
par UseCase.endHost.ipv4.icmp typename "\"inet.networklayer.ipv4.Icmp\""
par UseCase.endHost.ipv4.icmp interfaceTableModule "\"UseCase.endHost.interfaceTable\""
par UseCase.endHost.ipv4.icmp routingTableModule "\"UseCase.endHost.ipv4.routingTable\""
par UseCase.endHost.ipv4.icmp crcMode "\"declared\""
attr enum declared,computed
attr mutable ""
par UseCase.endHost.ipv4.icmp quoteLength 8B
attr mutable ""
attr unit B
par UseCase.endHost.ipv4.mp typename "\"inet.common.MessageDispatcher\""
par UseCase.endHost.ipv4.mp displayStringTextFormat "\"processed %p pk (%l)\""
par UseCase.endHost.ipv4.mp forwardServiceRegistration true
par UseCase.endHost.ipv4.mp forwardProtocolRegistration true
par UseCase.endHost.ipv4.ip typename "\"inet.networklayer.ipv4.Ipv4\""
par UseCase.endHost.ipv4.ip interfaceTableModule "\"UseCase.endHost.interfaceTable\""
par UseCase.endHost.ipv4.ip routingTableModule "\"UseCase.endHost.ipv4.routingTable\""
par UseCase.endHost.ipv4.ip arpModule "\"UseCase.endHost.ipv4.arp\""
par UseCase.endHost.ipv4.ip icmpModule "\"UseCase.endHost.ipv4.icmp\""
par UseCase.endHost.ipv4.ip crcMode "\"declared\""
attr enum declared,computed
par UseCase.endHost.ipv4.ip timeToLive 32
par UseCase.endHost.ipv4.ip multicastTimeToLive 32
par UseCase.endHost.ipv4.ip fragmentTimeout 60s
attr unit s
par UseCase.endHost.ipv4.ip limitedBroadcast false
par UseCase.endHost.ipv4.ip directBroadcastInterfaces "\"\""
par UseCase.endHost.ipv4.ip enableLocalOutMulticastRouting false
par UseCase.endHost.ipv4.ip enableTimestampOption false
par UseCase.endHost.ipv4.ip maxLifetime -1s
attr unit s
scalar UseCase.endHost.ipv4.ip packetDropAddressResolutionFailed:count 0
attr interpolationmode none
attr recordingmode count
attr source packetDropReasonIsAddressResolutionFailed(packetDropped)
attr title "packet drop: address resolution failed, count"
scalar UseCase.endHost.ipv4.ip packetDropAddressResolutionFailed:sum(packetBytes) 0
attr interpolationmode none
attr recordingmode sum(packetBytes)
attr source packetDropReasonIsAddressResolutionFailed(packetDropped)
attr title "packet drop: address resolution failed, sum(packetBytes)"
scalar UseCase.endHost.ipv4.ip packetDropHopLimitReached:count 0
attr interpolationmode none
attr recordingmode count
attr source packetDropReasonIsHopLimitReached(packetDropped)
attr title "packet drop: hop limit reached, count"
scalar UseCase.endHost.ipv4.ip packetDropHopLimitReached:sum(packetBytes) 0
attr interpolationmode none
attr recordingmode sum(packetBytes)
attr source packetDropReasonIsHopLimitReached(packetDropped)
attr title "packet drop: hop limit reached, sum(packetBytes)"
scalar UseCase.endHost.ipv4.ip packetDropForwardingDisabled:count 0
attr interpolationmode none
attr recordingmode count
attr source packetDropReasonIsForwardingDisabled(packetDropped)
attr title "packet drop: forwarding disabled, count"
scalar UseCase.endHost.ipv4.ip packetDropForwardingDisabled:sum(packetBytes) 0
attr interpolationmode none
attr recordingmode sum(packetBytes)
attr source packetDropReasonIsForwardingDisabled(packetDropped)
attr title "packet drop: forwarding disabled, sum(packetBytes)"
scalar UseCase.endHost.ipv4.ip packetDropLifetimeExpired:count 0
attr interpolationmode none
attr recordingmode count
attr source packetDropReasonIsLifetimeExpired(packetDropped)
attr title "packet drop: lifetime expired, count"
scalar UseCase.endHost.ipv4.ip packetDropLifetimeExpired:sum(packetBytes) 0
attr interpolationmode none
attr recordingmode sum(packetBytes)
attr source packetDropReasonIsLifetimeExpired(packetDropped)
attr title "packet drop: lifetime expired, sum(packetBytes)"
scalar UseCase.endHost.ipv4.ip packetDropNoInterfaceFound:count 0
attr interpolationmode none
attr recordingmode count
attr source packetDropReasonIsNoInterfaceFound(packetDropped)
attr title "packet drop: no interface found, count"
scalar UseCase.endHost.ipv4.ip packetDropNoInterfaceFound:sum(packetBytes) 0
attr interpolationmode none
attr recordingmode sum(packetBytes)
attr source packetDropReasonIsNoInterfaceFound(packetDropped)
attr title "packet drop: no interface found, sum(packetBytes)"
scalar UseCase.endHost.ipv4.ip packetDropNoRouteFound:count 0
attr interpolationmode none
attr recordingmode count
attr source packetDropReasonIsNoRouteFound(packetDropped)
attr title "packet drop: no route found, count"
scalar UseCase.endHost.ipv4.ip packetDropNoRouteFound:sum(packetBytes) 0
attr interpolationmode none
attr recordingmode sum(packetBytes)
attr source packetDropReasonIsNoRouteFound(packetDropped)
attr title "packet drop: no route found, sum(packetBytes)"
scalar UseCase.endHost.ipv4.ip packetDropUndefined:count 0
attr interpolationmode none
attr recordingmode count
attr source packetDropReasonIsUndefined(packetDropped)
attr title "packet drop: undefined, count"
scalar UseCase.endHost.ipv4.ip packetDropUndefined:sum(packetBytes) 0
attr interpolationmode none
attr recordingmode sum(packetBytes)
attr source packetDropReasonIsUndefined(packetDropped)
attr title "packet drop: undefined, sum(packetBytes)"
par UseCase.endHost.ipv4.arp typename "\"inet.networklayer.arp.ipv4.GlobalArp\""
par UseCase.endHost.ipv4.arp interfaceTableModule "\"UseCase.endHost.interfaceTable\""
par UseCase.endHost.ipv4.arp addressType "\"ipv4\""
attr enum ipv4,ipv6,mac,moduleid,modulepath
par UseCase.endHost.ipv4.lp typename "\"inet.common.MessageDispatcher\""
par UseCase.endHost.ipv4.lp displayStringTextFormat "\"processed %p pk (%l)\""
par UseCase.endHost.ipv4.lp forwardServiceRegistration true
par UseCase.endHost.ipv4.lp forwardProtocolRegistration true
par UseCase.endHost.ipv4 typename "\"inet.networklayer.ipv4.Ipv4NetworkLayer\""
par UseCase.endHost.ipv4 forwarding false
par UseCase.endHost.ipv4 multicastForwarding false
par UseCase.endHost.ipv4 hasIpsec false
par UseCase.endHost.ipv4 interfaceTableModule "\"UseCase.endHost.interfaceTable\""
par UseCase.endHost.ipv4 displayStringTextFormat "\"%i\""
par UseCase.endHost.nl typename "\"inet.common.MessageDispatcher\""
par UseCase.endHost.nl displayStringTextFormat "\"processed %p pk (%l)\""
par UseCase.endHost.nl forwardServiceRegistration true
par UseCase.endHost.nl forwardProtocolRegistration true
par UseCase.endHost.udp typename "\"inet.transportlayer.udp.Udp\""
par UseCase.endHost.udp interfaceTableModule "\"UseCase.endHost.interfaceTable\""
par UseCase.endHost.udp icmpModule "\"^.ipv4.icmp\""
par UseCase.endHost.udp icmpv6Module "\"^.ipv6.icmpv6\""
par UseCase.endHost.udp crcMode "\"declared\""
attr enum disabled,declared,computed
par UseCase.endHost.udp defaultMulticastLoop true
scalar UseCase.endHost.udp packetReceived:count 0
attr interpolationmode none
attr recordingmode count
attr source packetReceived
attr title "packets received, count"
scalar UseCase.endHost.udp packetReceived:sum(packetBytes) 0
attr interpolationmode none
attr recordingmode sum(packetBytes)
attr source packetReceived
attr title "packets received, sum(packetBytes)"
scalar UseCase.endHost.udp packetSent:count 0
attr interpolationmode none
attr recordingmode count
attr source packetSent
attr title "packets sent, count"
scalar UseCase.endHost.udp packetSent:sum(packetBytes) 0
attr interpolationmode none
attr recordingmode sum(packetBytes)
attr source packetSent
attr title "packets sent, sum(packetBytes)"
scalar UseCase.endHost.udp passedUpPk:count 0
attr interpolationmode none
attr recordingmode count
attr source packetSentToUpper
attr title "packets passed up, count"
scalar UseCase.endHost.udp droppedPkWrongPort:count 0
attr interpolationmode none
attr recordingmode count
attr source packetDropReasonIsNoPortFound(packetDropped)
attr title "packets dropped (wrong port), count"
scalar UseCase.endHost.udp droppedPkBadChecksum:count 0
attr interpolationmode none
attr recordingmode count
attr source packetDropReasonIsIncorrectlyReceived(packetDropped)
attr title "packets dropped (checksum error), count"
par UseCase.endHost.tcp typename "\"inet.transportlayer.tcp.Tcp\""
par UseCase.endHost.tcp crcMode "\"declared\""
attr enum declared,computed
par UseCase.endHost.tcp advertisedWindow 7504
par UseCase.endHost.tcp delayedAcksEnabled false
par UseCase.endHost.tcp nagleEnabled true
par UseCase.endHost.tcp limitedTransmitEnabled false
par UseCase.endHost.tcp increasedIWEnabled false
par UseCase.endHost.tcp sackSupport false
par UseCase.endHost.tcp windowScalingSupport false
par UseCase.endHost.tcp windowScalingFactor -1
par UseCase.endHost.tcp timestampSupport false
par UseCase.endHost.tcp mss 536
par UseCase.endHost.tcp msl 120s
attr unit s
par UseCase.endHost.tcp tcpAlgorithmClass "\"TcpReno\""
attr enum TcpVegas,TcpWestwood,DcTcp,TcpNewReno,TcpReno,TcpTahoe,TcpNoCongestionControl
par UseCase.endHost.tcp dupthresh 3
par UseCase.endHost.tcp initialSsthresh 4294967295
par UseCase.endHost.tcp stopOperationExtraTime 0s
attr unit s
par UseCase.endHost.tcp stopOperationTimeout 2s
attr unit s
par UseCase.endHost.tcp ecnWillingness false
par UseCase.endHost.tcp dctcpGamma 0.0625
par UseCase.endHost.tn typename "\"inet.common.MessageDispatcher\""
par UseCase.endHost.tn displayStringTextFormat "\"processed %p pk (%l)\""
par UseCase.endHost.tn forwardServiceRegistration true
par UseCase.endHost.tn forwardProtocolRegistration true
par UseCase.endHost.at typename "\"inet.common.MessageDispatcher\""
par UseCase.endHost.at displayStringTextFormat "\"processed %p pk (%l)\""
par UseCase.endHost.at forwardServiceRegistration true
par UseCase.endHost.at forwardProtocolRegistration true
par UseCase.endHost.gptp typename "\"inet.linklayer.ieee8021as.Gptp\""
par UseCase.endHost.gptp clockModule "\"UseCase.endHost.clock\""
par UseCase.endHost.gptp interfaceTableModule "\"UseCase.endHost.interfaceTable\""
par UseCase.endHost.gptp gptpNodeType "\"MASTER_NODE\""
par UseCase.endHost.gptp domainNumber 0
par UseCase.endHost.gptp slavePort "\"\""
par UseCase.endHost.gptp masterPorts "[\"eth0\"]"
par UseCase.endHost.gptp correctionField 0s
attr unit s
par UseCase.endHost.gptp syncInterval 0.125s
attr unit s
par UseCase.endHost.gptp pdelayInterval 1s
attr unit s
par UseCase.endHost.gptp syncInitialOffset 0.125s
attr unit s
par UseCase.endHost.gptp pdelayInitialOffset 0s
attr unit s
par UseCase.endHost.gptp pDelayReqProcessingTime 8e-06s
attr unit s
par UseCase.endHost.gptp followUpInterval 7e-06s
attr unit s
par UseCase.endHost typename "\"inet.node.tsn.TsnDevice\""
par UseCase.endHost hasStatus false
par UseCase.endHost osgModel "\"\""
par UseCase.endHost osgModelColor "\"\""
par UseCase.endHost canvasImage "\"\""
par UseCase.endHost canvasImageColor "\"\""
par UseCase.endHost recordPcap false
par UseCase.endHost numPcapRecorders 0
par UseCase.endHost numLoInterfaces 1
par UseCase.endHost numWlanInterfaces 0
par UseCase.endHost numEthInterfaces 0
par UseCase.endHost numPppInterfaces 0
par UseCase.endHost numTunInterfaces 0
par UseCase.endHost numVirtInterfaces 0
par UseCase.endHost fcsMode "\"declared\""
attr enum declared,computed
par UseCase.endHost hasIpv4 true
par UseCase.endHost hasIpv6 false
par UseCase.endHost hasGn false
par UseCase.endHost forwarding false
par UseCase.endHost multicastForwarding false
par UseCase.endHost hasUdp true
par UseCase.endHost hasTcp true
par UseCase.endHost hasSctp false
par UseCase.endHost numApps 0
par UseCase.endHost hasTimeSynchronization true
par UseCase.endHost hasIngressTrafficFiltering false
par UseCase.endHost hasEgressTrafficFiltering false
par UseCase.endHost hasEgressTrafficShaping false
par UseCase.endHost hasStreamRedundancy false
par UseCase.endHost hasIncomingStreams false
par UseCase.endHost hasOutgoingStreams false
par UseCase.endHost hasFramePreemption false
par UseCase.endHost hasCutthroughSwitching false
par UseCase typename "\"simulation.UseCase\""
par UseCase recordPcap false
par UseCase numPcapRecorders 0
par UseCase hasGlobalArp true

