version 3
run UE-UE-Synchronization-0-20240509-16:19:36-8467
attr configname UE-UE-Synchronization
attr datetime 20240509-16:19:36
attr datetimef 20240509-161936
attr experiment UE-UE-Synchronization
attr inifile omnetpp.ini
attr iterationvars ""
attr iterationvarsd ""
attr iterationvarsf ""
attr measurement ""
attr network UseCase2
attr processid 8467
attr repetition 0
attr replication #0
attr resultdir results
attr runnumber 0
attr seedset 0
config image-path ../../inet/images:../../Simu5G/images
config extends timeSynchronization
config *.DSTT2.clock.typename IdealClock
config *.switch5GC.hasTimeSynchronization false
config *.PLC.hasTimeSynchronization false
config **.hasTimeSynchronization true
config network UseCase2
config *.ue2.macCellId 0
config *.ue2.masterId 0
config *.ue2.nrMacCellId 1
config *.ue2.nrMasterId 1
config *.ue2.intHostAddress "\"Actuator2 DSTT2\""
config **.referenceClock "\"switchTSN.clock\""
config *.switchTSN.clock.oscillator.driftRate 10ppm
config **.oscillator.driftRate "uniform(10ppm, 100ppm)"
config *.switchTSN.gptp.gptpNodeType "\"MASTER_NODE\""
config *.switchTSN.gptp.masterPorts "[\"eth0\",\"eth1\",\"eth2\"]"
config *.switchTSN.gptp.slavePort "\"\""
config *.switchTSN2.gptp.masterPorts "[\"eth1\"]"
config *.switchTSN2.gptp.slavePort "\"eth0\""
config *.NSTT.gptp.TSNPort "\"eth1\""
config *.NSTT.gptp.fiveGPort "\"eth0\""
config *.DSTT.gptp.TSNPort "\"eth1\""
config *.DSTT.gptp.fiveGPort "\"eth0\""
config *.DSTT.gptp.masterDomains [0]
config *.DSTT2.gptp.TSNPort "\"eth1\""
config *.DSTT2.gptp.fiveGPort "\"eth0\""
config *.DSTT2.gptp.slaveDomains [0]
config *.switch5GC.clock.displayStringTextFormat "\"diff: %d\""
config *.switchTSN2.clock.displayStringTextFormat "\"diff: %d\""
config *.switchTSN.clock.displayStringTextFormat "\"time: %T\""
config *.upf.clock.typename IdealClock
config *.*TT.clock.typename IdealClock
config **.clock.oscillator.typename ConstantDriftOscillator
config *.*TT.gptp.typename Gptp5g
config *.*TT.gptp.fiveGPort "\"eth0\""
config *.visualizer.typename IntegratedMultiCanvasVisualizer
config *.visualizer.numInfoVisualizers 1
config *.visualizer.infoVisualizer[0].modules "\"**.clock\""
config *.visualizer.infoVisualizer[0].placementHint "\"bottom\""
config *.PLC.clock.displayStringTextFormat "\"diff: %d\""
config *.Actuato*.clock.displayStringTextFormat "\"diff: %d\""
config *.Sensor.clock.displayStringTextFormat "\"diff: %d\""
config *.switch*.clock.displayStringTextFormat "\"diff: %d\""
config network UseCase
config sim-time-limit 200s
config **.eth*.bitrate 1Gbps
config **.mobility.typename ""
config *.ue.macCellId 0
config *.ue.masterId 0
config *.ue.nrMacCellId 1
config *.ue.nrMasterId 1
config *.ue.intHostAddress "\"Sensor Actuator DSTT\""
config **.amcType "\"NRAmc\""
config **.targetBler 0.001
config **.blerShift 5
config **.numerologyIndex 1
config **.useTdd true
config **.numBands 200
config *.NSTT.**.translatorType "\"NS_TT\""

par UseCase2.PLC.ethg$o[0].channel typename "\"inet.node.ethernet.Eth1G\""
par UseCase2.PLC.ethg$o[0].channel disabled false
attr mutable ""
par UseCase2.PLC.ethg$o[0].channel delay 5e-08s
attr mutable ""
attr unit s
par UseCase2.PLC.ethg$o[0].channel datarate 1e+09bps
attr mutable ""
attr unit bps
par UseCase2.PLC.ethg$o[0].channel ber 0
attr mutable ""
par UseCase2.PLC.ethg$o[0].channel per 0
attr mutable ""
par UseCase2.PLC.ethg$o[0].channel enabledLineStyle "\"solid\""
par UseCase2.PLC.ethg$o[0].channel disabledLineStyle "\"dashed\""
par UseCase2.PLC.ethg$o[0].channel disabledIcon "\"status/cross\""
par UseCase2.PLC.ethg$o[0].channel length 10m
attr unit m
par UseCase2.switch5GC.ethg$o[0].channel typename "\"inet.node.ethernet.Eth1G\""
par UseCase2.switch5GC.ethg$o[0].channel disabled false
attr mutable ""
par UseCase2.switch5GC.ethg$o[0].channel delay 5e-08s
attr mutable ""
attr unit s
par UseCase2.switch5GC.ethg$o[0].channel datarate 1e+09bps
attr mutable ""
attr unit bps
par UseCase2.switch5GC.ethg$o[0].channel ber 0
attr mutable ""
par UseCase2.switch5GC.ethg$o[0].channel per 0
attr mutable ""
par UseCase2.switch5GC.ethg$o[0].channel enabledLineStyle "\"solid\""
par UseCase2.switch5GC.ethg$o[0].channel disabledLineStyle "\"dashed\""
par UseCase2.switch5GC.ethg$o[0].channel disabledIcon "\"status/cross\""
par UseCase2.switch5GC.ethg$o[0].channel length 10m
attr unit m
par UseCase2.NSTT.ethg$o[0].channel typename "\"inet.node.ethernet.Eth1G\""
par UseCase2.NSTT.ethg$o[0].channel disabled false
attr mutable ""
par UseCase2.NSTT.ethg$o[0].channel delay 5e-08s
attr mutable ""
attr unit s
par UseCase2.NSTT.ethg$o[0].channel datarate 1e+09bps
attr mutable ""
attr unit bps
par UseCase2.NSTT.ethg$o[0].channel ber 0
attr mutable ""
par UseCase2.NSTT.ethg$o[0].channel per 0
attr mutable ""
par UseCase2.NSTT.ethg$o[0].channel enabledLineStyle "\"solid\""
par UseCase2.NSTT.ethg$o[0].channel disabledLineStyle "\"dashed\""
par UseCase2.NSTT.ethg$o[0].channel disabledIcon "\"status/cross\""
par UseCase2.NSTT.ethg$o[0].channel length 10m
attr unit m
par UseCase2.upf.filterGate$o.channel typename "\"inet.node.ethernet.Eth1G\""
par UseCase2.upf.filterGate$o.channel disabled false
attr mutable ""
par UseCase2.upf.filterGate$o.channel delay 5e-08s
attr mutable ""
attr unit s
par UseCase2.upf.filterGate$o.channel datarate 1e+09bps
attr mutable ""
attr unit bps
par UseCase2.upf.filterGate$o.channel ber 0
attr mutable ""
par UseCase2.upf.filterGate$o.channel per 0
attr mutable ""
par UseCase2.upf.filterGate$o.channel enabledLineStyle "\"solid\""
par UseCase2.upf.filterGate$o.channel disabledLineStyle "\"dashed\""
par UseCase2.upf.filterGate$o.channel disabledIcon "\"status/cross\""
par UseCase2.upf.filterGate$o.channel length 10m
attr unit m
par UseCase2.switch5GC.ethg$o[1].channel typename "\"inet.node.ethernet.Eth1G\""
par UseCase2.switch5GC.ethg$o[1].channel disabled false
attr mutable ""
par UseCase2.switch5GC.ethg$o[1].channel delay 5e-08s
attr mutable ""
attr unit s
par UseCase2.switch5GC.ethg$o[1].channel datarate 1e+09bps
attr mutable ""
attr unit bps
par UseCase2.switch5GC.ethg$o[1].channel ber 0
attr mutable ""
par UseCase2.switch5GC.ethg$o[1].channel per 0
attr mutable ""
par UseCase2.switch5GC.ethg$o[1].channel enabledLineStyle "\"solid\""
par UseCase2.switch5GC.ethg$o[1].channel disabledLineStyle "\"dashed\""
par UseCase2.switch5GC.ethg$o[1].channel disabledIcon "\"status/cross\""
par UseCase2.switch5GC.ethg$o[1].channel length 10m
attr unit m
par UseCase2.NSTT.ethg$o[1].channel typename "\"inet.node.ethernet.Eth1G\""
par UseCase2.NSTT.ethg$o[1].channel disabled false
attr mutable ""
par UseCase2.NSTT.ethg$o[1].channel delay 5e-08s
attr mutable ""
attr unit s
par UseCase2.NSTT.ethg$o[1].channel datarate 1e+09bps
attr mutable ""
attr unit bps
par UseCase2.NSTT.ethg$o[1].channel ber 0
attr mutable ""
par UseCase2.NSTT.ethg$o[1].channel per 0
attr mutable ""
par UseCase2.NSTT.ethg$o[1].channel enabledLineStyle "\"solid\""
par UseCase2.NSTT.ethg$o[1].channel disabledLineStyle "\"dashed\""
par UseCase2.NSTT.ethg$o[1].channel disabledIcon "\"status/cross\""
par UseCase2.NSTT.ethg$o[1].channel length 10m
attr unit m
par UseCase2.upf.ethg$o[0].channel typename "\"inet.node.ethernet.Eth1G\""
par UseCase2.upf.ethg$o[0].channel disabled false
attr mutable ""
par UseCase2.upf.ethg$o[0].channel delay 5e-08s
attr mutable ""
attr unit s
par UseCase2.upf.ethg$o[0].channel datarate 1e+09bps
attr mutable ""
attr unit bps
par UseCase2.upf.ethg$o[0].channel ber 0
attr mutable ""
par UseCase2.upf.ethg$o[0].channel per 0
attr mutable ""
par UseCase2.upf.ethg$o[0].channel enabledLineStyle "\"solid\""
par UseCase2.upf.ethg$o[0].channel disabledLineStyle "\"dashed\""
par UseCase2.upf.ethg$o[0].channel disabledIcon "\"status/cross\""
par UseCase2.upf.ethg$o[0].channel length 10m
attr unit m
par UseCase2.gNB.ethg$o.channel typename "\"inet.node.ethernet.Eth1G\""
par UseCase2.gNB.ethg$o.channel disabled false
attr mutable ""
par UseCase2.gNB.ethg$o.channel delay 5e-08s
attr mutable ""
attr unit s
par UseCase2.gNB.ethg$o.channel datarate 1e+09bps
attr mutable ""
attr unit bps
par UseCase2.gNB.ethg$o.channel ber 0
attr mutable ""
par UseCase2.gNB.ethg$o.channel per 0
attr mutable ""
par UseCase2.gNB.ethg$o.channel enabledLineStyle "\"solid\""
par UseCase2.gNB.ethg$o.channel disabledLineStyle "\"dashed\""
par UseCase2.gNB.ethg$o.channel disabledIcon "\"status/cross\""
par UseCase2.gNB.ethg$o.channel length 10m
attr unit m
par UseCase2.ue.ethg$o[0].channel typename "\"inet.node.ethernet.Eth1G\""
par UseCase2.ue.ethg$o[0].channel disabled false
attr mutable ""
par UseCase2.ue.ethg$o[0].channel delay 5e-08s
attr mutable ""
attr unit s
par UseCase2.ue.ethg$o[0].channel datarate 1e+09bps
attr mutable ""
attr unit bps
par UseCase2.ue.ethg$o[0].channel ber 0
attr mutable ""
par UseCase2.ue.ethg$o[0].channel per 0
attr mutable ""
par UseCase2.ue.ethg$o[0].channel enabledLineStyle "\"solid\""
par UseCase2.ue.ethg$o[0].channel disabledLineStyle "\"dashed\""
par UseCase2.ue.ethg$o[0].channel disabledIcon "\"status/cross\""
par UseCase2.ue.ethg$o[0].channel length 10m
attr unit m
par UseCase2.DSTT.ethg$o[0].channel typename "\"inet.node.ethernet.Eth1G\""
par UseCase2.DSTT.ethg$o[0].channel disabled false
attr mutable ""
par UseCase2.DSTT.ethg$o[0].channel delay 5e-08s
attr mutable ""
attr unit s
par UseCase2.DSTT.ethg$o[0].channel datarate 1e+09bps
attr mutable ""
attr unit bps
par UseCase2.DSTT.ethg$o[0].channel ber 0
attr mutable ""
par UseCase2.DSTT.ethg$o[0].channel per 0
attr mutable ""
par UseCase2.DSTT.ethg$o[0].channel enabledLineStyle "\"solid\""
par UseCase2.DSTT.ethg$o[0].channel disabledLineStyle "\"dashed\""
par UseCase2.DSTT.ethg$o[0].channel disabledIcon "\"status/cross\""
par UseCase2.DSTT.ethg$o[0].channel length 10m
attr unit m
par UseCase2.DSTT.ethg$o[1].channel typename "\"inet.node.ethernet.Eth1G\""
par UseCase2.DSTT.ethg$o[1].channel disabled false
attr mutable ""
par UseCase2.DSTT.ethg$o[1].channel delay 5e-08s
attr mutable ""
attr unit s
par UseCase2.DSTT.ethg$o[1].channel datarate 1e+09bps
attr mutable ""
attr unit bps
par UseCase2.DSTT.ethg$o[1].channel ber 0
attr mutable ""
par UseCase2.DSTT.ethg$o[1].channel per 0
attr mutable ""
par UseCase2.DSTT.ethg$o[1].channel enabledLineStyle "\"solid\""
par UseCase2.DSTT.ethg$o[1].channel disabledLineStyle "\"dashed\""
par UseCase2.DSTT.ethg$o[1].channel disabledIcon "\"status/cross\""
par UseCase2.DSTT.ethg$o[1].channel length 10m
attr unit m
par UseCase2.switchTSN.ethg$o[0].channel typename "\"inet.node.ethernet.Eth1G\""
par UseCase2.switchTSN.ethg$o[0].channel disabled false
attr mutable ""
par UseCase2.switchTSN.ethg$o[0].channel delay 5e-08s
attr mutable ""
attr unit s
par UseCase2.switchTSN.ethg$o[0].channel datarate 1e+09bps
attr mutable ""
attr unit bps
par UseCase2.switchTSN.ethg$o[0].channel ber 0
attr mutable ""
par UseCase2.switchTSN.ethg$o[0].channel per 0
attr mutable ""
par UseCase2.switchTSN.ethg$o[0].channel enabledLineStyle "\"solid\""
par UseCase2.switchTSN.ethg$o[0].channel disabledLineStyle "\"dashed\""
par UseCase2.switchTSN.ethg$o[0].channel disabledIcon "\"status/cross\""
par UseCase2.switchTSN.ethg$o[0].channel length 10m
attr unit m
par UseCase2.switchTSN.ethg$o[1].channel typename "\"inet.node.ethernet.Eth1G\""
par UseCase2.switchTSN.ethg$o[1].channel disabled false
attr mutable ""
par UseCase2.switchTSN.ethg$o[1].channel delay 5e-08s
attr mutable ""
attr unit s
par UseCase2.switchTSN.ethg$o[1].channel datarate 1e+09bps
attr mutable ""
attr unit bps
par UseCase2.switchTSN.ethg$o[1].channel ber 0
attr mutable ""
par UseCase2.switchTSN.ethg$o[1].channel per 0
attr mutable ""
par UseCase2.switchTSN.ethg$o[1].channel enabledLineStyle "\"solid\""
par UseCase2.switchTSN.ethg$o[1].channel disabledLineStyle "\"dashed\""
par UseCase2.switchTSN.ethg$o[1].channel disabledIcon "\"status/cross\""
par UseCase2.switchTSN.ethg$o[1].channel length 10m
attr unit m
par UseCase2.Sensor.ethg$o[0].channel typename "\"inet.node.ethernet.Eth1G\""
par UseCase2.Sensor.ethg$o[0].channel disabled false
attr mutable ""
par UseCase2.Sensor.ethg$o[0].channel delay 5e-08s
attr mutable ""
attr unit s
par UseCase2.Sensor.ethg$o[0].channel datarate 1e+09bps
attr mutable ""
attr unit bps
par UseCase2.Sensor.ethg$o[0].channel ber 0
attr mutable ""
par UseCase2.Sensor.ethg$o[0].channel per 0
attr mutable ""
par UseCase2.Sensor.ethg$o[0].channel enabledLineStyle "\"solid\""
par UseCase2.Sensor.ethg$o[0].channel disabledLineStyle "\"dashed\""
par UseCase2.Sensor.ethg$o[0].channel disabledIcon "\"status/cross\""
par UseCase2.Sensor.ethg$o[0].channel length 10m
attr unit m
par UseCase2.switchTSN.ethg$o[2].channel typename "\"inet.node.ethernet.Eth1G\""
par UseCase2.switchTSN.ethg$o[2].channel disabled false
attr mutable ""
par UseCase2.switchTSN.ethg$o[2].channel delay 5e-08s
attr mutable ""
attr unit s
par UseCase2.switchTSN.ethg$o[2].channel datarate 1e+09bps
attr mutable ""
attr unit bps
par UseCase2.switchTSN.ethg$o[2].channel ber 0
attr mutable ""
par UseCase2.switchTSN.ethg$o[2].channel per 0
attr mutable ""
par UseCase2.switchTSN.ethg$o[2].channel enabledLineStyle "\"solid\""
par UseCase2.switchTSN.ethg$o[2].channel disabledLineStyle "\"dashed\""
par UseCase2.switchTSN.ethg$o[2].channel disabledIcon "\"status/cross\""
par UseCase2.switchTSN.ethg$o[2].channel length 10m
attr unit m
par UseCase2.Actuator.ethg$o[0].channel typename "\"inet.node.ethernet.Eth1G\""
par UseCase2.Actuator.ethg$o[0].channel disabled false
attr mutable ""
par UseCase2.Actuator.ethg$o[0].channel delay 5e-08s
attr mutable ""
attr unit s
par UseCase2.Actuator.ethg$o[0].channel datarate 1e+09bps
attr mutable ""
attr unit bps
par UseCase2.Actuator.ethg$o[0].channel ber 0
attr mutable ""
par UseCase2.Actuator.ethg$o[0].channel per 0
attr mutable ""
par UseCase2.Actuator.ethg$o[0].channel enabledLineStyle "\"solid\""
par UseCase2.Actuator.ethg$o[0].channel disabledLineStyle "\"dashed\""
par UseCase2.Actuator.ethg$o[0].channel disabledIcon "\"status/cross\""
par UseCase2.Actuator.ethg$o[0].channel length 10m
attr unit m
par UseCase2.ue2.ethg$o[0].channel typename "\"inet.node.ethernet.Eth1G\""
par UseCase2.ue2.ethg$o[0].channel disabled false
attr mutable ""
par UseCase2.ue2.ethg$o[0].channel delay 5e-08s
attr mutable ""
attr unit s
par UseCase2.ue2.ethg$o[0].channel datarate 1e+09bps
attr mutable ""
attr unit bps
par UseCase2.ue2.ethg$o[0].channel ber 0
attr mutable ""
par UseCase2.ue2.ethg$o[0].channel per 0
attr mutable ""
par UseCase2.ue2.ethg$o[0].channel enabledLineStyle "\"solid\""
par UseCase2.ue2.ethg$o[0].channel disabledLineStyle "\"dashed\""
par UseCase2.ue2.ethg$o[0].channel disabledIcon "\"status/cross\""
par UseCase2.ue2.ethg$o[0].channel length 10m
attr unit m
par UseCase2.DSTT2.ethg$o[0].channel typename "\"inet.node.ethernet.Eth1G\""
par UseCase2.DSTT2.ethg$o[0].channel disabled false
attr mutable ""
par UseCase2.DSTT2.ethg$o[0].channel delay 5e-08s
attr mutable ""
attr unit s
par UseCase2.DSTT2.ethg$o[0].channel datarate 1e+09bps
attr mutable ""
attr unit bps
par UseCase2.DSTT2.ethg$o[0].channel ber 0
attr mutable ""
par UseCase2.DSTT2.ethg$o[0].channel per 0
attr mutable ""
par UseCase2.DSTT2.ethg$o[0].channel enabledLineStyle "\"solid\""
par UseCase2.DSTT2.ethg$o[0].channel disabledLineStyle "\"dashed\""
par UseCase2.DSTT2.ethg$o[0].channel disabledIcon "\"status/cross\""
par UseCase2.DSTT2.ethg$o[0].channel length 10m
attr unit m
par UseCase2.DSTT2.ethg$o[1].channel typename "\"inet.node.ethernet.Eth1G\""
par UseCase2.DSTT2.ethg$o[1].channel disabled false
attr mutable ""
par UseCase2.DSTT2.ethg$o[1].channel delay 5e-08s
attr mutable ""
attr unit s
par UseCase2.DSTT2.ethg$o[1].channel datarate 1e+09bps
attr mutable ""
attr unit bps
par UseCase2.DSTT2.ethg$o[1].channel ber 0
attr mutable ""
par UseCase2.DSTT2.ethg$o[1].channel per 0
attr mutable ""
par UseCase2.DSTT2.ethg$o[1].channel enabledLineStyle "\"solid\""
par UseCase2.DSTT2.ethg$o[1].channel disabledLineStyle "\"dashed\""
par UseCase2.DSTT2.ethg$o[1].channel disabledIcon "\"status/cross\""
par UseCase2.DSTT2.ethg$o[1].channel length 10m
attr unit m
par UseCase2.switchTSN2.ethg$o[0].channel typename "\"inet.node.ethernet.Eth1G\""
par UseCase2.switchTSN2.ethg$o[0].channel disabled false
attr mutable ""
par UseCase2.switchTSN2.ethg$o[0].channel delay 5e-08s
attr mutable ""
attr unit s
par UseCase2.switchTSN2.ethg$o[0].channel datarate 1e+09bps
attr mutable ""
attr unit bps
par UseCase2.switchTSN2.ethg$o[0].channel ber 0
attr mutable ""
par UseCase2.switchTSN2.ethg$o[0].channel per 0
attr mutable ""
par UseCase2.switchTSN2.ethg$o[0].channel enabledLineStyle "\"solid\""
par UseCase2.switchTSN2.ethg$o[0].channel disabledLineStyle "\"dashed\""
par UseCase2.switchTSN2.ethg$o[0].channel disabledIcon "\"status/cross\""
par UseCase2.switchTSN2.ethg$o[0].channel length 10m
attr unit m
par UseCase2.switchTSN2.ethg$o[1].channel typename "\"inet.node.ethernet.Eth1G\""
par UseCase2.switchTSN2.ethg$o[1].channel disabled false
attr mutable ""
par UseCase2.switchTSN2.ethg$o[1].channel delay 5e-08s
attr mutable ""
attr unit s
par UseCase2.switchTSN2.ethg$o[1].channel datarate 1e+09bps
attr mutable ""
attr unit bps
par UseCase2.switchTSN2.ethg$o[1].channel ber 0
attr mutable ""
par UseCase2.switchTSN2.ethg$o[1].channel per 0
attr mutable ""
par UseCase2.switchTSN2.ethg$o[1].channel enabledLineStyle "\"solid\""
par UseCase2.switchTSN2.ethg$o[1].channel disabledLineStyle "\"dashed\""
par UseCase2.switchTSN2.ethg$o[1].channel disabledIcon "\"status/cross\""
par UseCase2.switchTSN2.ethg$o[1].channel length 10m
attr unit m
par UseCase2.Actuator2.ethg$o[0].channel typename "\"inet.node.ethernet.Eth1G\""
par UseCase2.Actuator2.ethg$o[0].channel disabled false
attr mutable ""
par UseCase2.Actuator2.ethg$o[0].channel delay 5e-08s
attr mutable ""
attr unit s
par UseCase2.Actuator2.ethg$o[0].channel datarate 1e+09bps
attr mutable ""
attr unit bps
par UseCase2.Actuator2.ethg$o[0].channel ber 0
attr mutable ""
par UseCase2.Actuator2.ethg$o[0].channel per 0
attr mutable ""
par UseCase2.Actuator2.ethg$o[0].channel enabledLineStyle "\"solid\""
par UseCase2.Actuator2.ethg$o[0].channel disabledLineStyle "\"dashed\""
par UseCase2.Actuator2.ethg$o[0].channel disabledIcon "\"status/cross\""
par UseCase2.Actuator2.ethg$o[0].channel length 10m
attr unit m
par UseCase2.visualizer.sceneVisualizer[0] typename "\"inet.visualizer.canvas.scene.SceneCanvasVisualizer\""
par UseCase2.visualizer.sceneVisualizer[0] visualizationTargetModule "\"^.^\""
par UseCase2.visualizer.sceneVisualizer[0] visualizationSubjectModule "\"^.^\""
par UseCase2.visualizer.sceneVisualizer[0] tags "\"\""
par UseCase2.visualizer.sceneVisualizer[0] physicalEnvironmentModule "\"physicalEnvironment\""
par UseCase2.visualizer.sceneVisualizer[0] networkNodeVisualizerModule "\"UseCase2.visualizer.networkNodeVisualizer[0]\""
par UseCase2.visualizer.sceneVisualizer[0] axisLength "nan m"
attr mutable ""
attr unit m
par UseCase2.visualizer.sceneVisualizer[0] animationSpeed 0
par UseCase2.visualizer.sceneVisualizer[0] sceneMinX "nan m"
attr unit m
par UseCase2.visualizer.sceneVisualizer[0] sceneMinY "nan m"
attr unit m
par UseCase2.visualizer.sceneVisualizer[0] sceneMinZ "nan m"
attr unit m
par UseCase2.visualizer.sceneVisualizer[0] sceneMaxX "nan m"
attr unit m
par UseCase2.visualizer.sceneVisualizer[0] sceneMaxY "nan m"
attr unit m
par UseCase2.visualizer.sceneVisualizer[0] sceneMaxZ "nan m"
attr unit m
par UseCase2.visualizer.sceneVisualizer[0] zIndex 0
par UseCase2.visualizer.sceneVisualizer[0] viewAngle "\"x right y down z out\""
attr mutable ""
par UseCase2.visualizer.sceneVisualizer[0] viewScale "\"1 1\""
attr mutable ""
par UseCase2.visualizer.sceneVisualizer[0] viewTranslation "\"0 0\""
attr mutable ""
par UseCase2.visualizer.sceneVisualizer[0] descriptionFigure "\"\""
par UseCase2.visualizer.physicalEnvironmentVisualizer[0] typename "\"inet.visualizer.canvas.environment.PhysicalEnvironmentCanvasVisualizer\""
par UseCase2.visualizer.physicalEnvironmentVisualizer[0] visualizationTargetModule "\"^.^\""
par UseCase2.visualizer.physicalEnvironmentVisualizer[0] visualizationSubjectModule "\"^.^\""
par UseCase2.visualizer.physicalEnvironmentVisualizer[0] tags "\"\""
par UseCase2.visualizer.physicalEnvironmentVisualizer[0] physicalEnvironmentModule "\"physicalEnvironment\""
par UseCase2.visualizer.physicalEnvironmentVisualizer[0] displayObjects true
par UseCase2.visualizer.physicalEnvironmentVisualizer[0] zIndex 0
par UseCase2.visualizer.networkNodeVisualizer[0] typename "\"inet.visualizer.canvas.scene.NetworkNodeCanvasVisualizer\""
par UseCase2.visualizer.networkNodeVisualizer[0] visualizationTargetModule "\"^.^\""
par UseCase2.visualizer.networkNodeVisualizer[0] visualizationSubjectModule "\"^.^\""
par UseCase2.visualizer.networkNodeVisualizer[0] tags "\"\""
par UseCase2.visualizer.networkNodeVisualizer[0] nodeFilter "\"*\""
attr mutable ""
par UseCase2.visualizer.networkNodeVisualizer[0] annotationSpacing 4
par UseCase2.visualizer.networkNodeVisualizer[0] placementPenalty 10
par UseCase2.visualizer.networkNodeVisualizer[0] zIndex 0
par UseCase2.visualizer.networkConnectionVisualizer[0] typename "\"inet.visualizer.canvas.scene.NetworkConnectionCanvasVisualizer\""
par UseCase2.visualizer.networkConnectionVisualizer[0] visualizationTargetModule "\"^.^\""
par UseCase2.visualizer.networkConnectionVisualizer[0] visualizationSubjectModule "\"^.^\""
par UseCase2.visualizer.networkConnectionVisualizer[0] tags "\"\""
par UseCase2.visualizer.networkConnectionVisualizer[0] displayNetworkConnections true
par UseCase2.visualizer.networkConnectionVisualizer[0] nodeFilter "\"\""
attr mutable ""
par UseCase2.visualizer.networkConnectionVisualizer[0] lineColor "\"black\""
par UseCase2.visualizer.networkConnectionVisualizer[0] lineStyle "\"solid\""
par UseCase2.visualizer.networkConnectionVisualizer[0] lineWidth 1
par UseCase2.visualizer.networkConnectionVisualizer[0] zIndex 0
par UseCase2.visualizer.mobilityVisualizer[0] typename "\"inet.visualizer.canvas.mobility.MobilityCanvasVisualizer\""
par UseCase2.visualizer.mobilityVisualizer[0] visualizationTargetModule "\"^.^\""
par UseCase2.visualizer.mobilityVisualizer[0] visualizationSubjectModule "\"^.^\""
par UseCase2.visualizer.mobilityVisualizer[0] tags "\"\""
par UseCase2.visualizer.mobilityVisualizer[0] networkNodeVisualizerModule "\"UseCase2.visualizer.networkNodeVisualizer[0]\""
par UseCase2.visualizer.mobilityVisualizer[0] displayMobility true
par UseCase2.visualizer.mobilityVisualizer[0] animationSpeed 0
par UseCase2.visualizer.mobilityVisualizer[0] moduleFilter "\"**.mobility\""
attr mutable ""
par UseCase2.visualizer.mobilityVisualizer[0] displayPositions false
par UseCase2.visualizer.mobilityVisualizer[0] positionCircleRadius 4
par UseCase2.visualizer.mobilityVisualizer[0] positionCircleLineWidth 1
par UseCase2.visualizer.mobilityVisualizer[0] positionCircleLineColor "\"dark\""
attr enum light,dark
par UseCase2.visualizer.mobilityVisualizer[0] positionCircleFillColor "\"dark\""
attr enum light,dark
par UseCase2.visualizer.mobilityVisualizer[0] displayOrientations false
par UseCase2.visualizer.mobilityVisualizer[0] orientationPieRadius 32
par UseCase2.visualizer.mobilityVisualizer[0] orientationPieSize 0.2
par UseCase2.visualizer.mobilityVisualizer[0] orientationPieOpacity 0.25
par UseCase2.visualizer.mobilityVisualizer[0] orientationLineColor "\"black\""
par UseCase2.visualizer.mobilityVisualizer[0] orientationLineStyle "\"solid\""
par UseCase2.visualizer.mobilityVisualizer[0] orientationLineWidth 1
par UseCase2.visualizer.mobilityVisualizer[0] orientationFillColor "\"blue\""
par UseCase2.visualizer.mobilityVisualizer[0] displayVelocities false
par UseCase2.visualizer.mobilityVisualizer[0] velocityArrowScale 1
par UseCase2.visualizer.mobilityVisualizer[0] velocityLineColor "\"black\""
par UseCase2.visualizer.mobilityVisualizer[0] velocityLineStyle "\"solid\""
par UseCase2.visualizer.mobilityVisualizer[0] velocityLineWidth 1
par UseCase2.visualizer.mobilityVisualizer[0] displayMovementTrails false
par UseCase2.visualizer.mobilityVisualizer[0] movementTrailLineColor "\"dark\""
attr enum light,dark
par UseCase2.visualizer.mobilityVisualizer[0] movementTrailLineStyle "\"solid\""
par UseCase2.visualizer.mobilityVisualizer[0] movementTrailLineWidth 1
par UseCase2.visualizer.mobilityVisualizer[0] trailLength 100
par UseCase2.visualizer.mobilityVisualizer[0] zIndex 0
par UseCase2.visualizer.statisticVisualizer[0] typename "\"inet.visualizer.canvas.common.StatisticCanvasVisualizer\""
par UseCase2.visualizer.statisticVisualizer[0] visualizationTargetModule "\"^.^\""
par UseCase2.visualizer.statisticVisualizer[0] visualizationSubjectModule "\"^.^\""
par UseCase2.visualizer.statisticVisualizer[0] tags "\"\""
par UseCase2.visualizer.statisticVisualizer[0] networkNodeVisualizerModule "\"UseCase2.visualizer.networkNodeVisualizer[0]\""
par UseCase2.visualizer.statisticVisualizer[0] displayStatistics false
par UseCase2.visualizer.statisticVisualizer[0] signalName "\"\""
par UseCase2.visualizer.statisticVisualizer[0] statisticName "\"\""
par UseCase2.visualizer.statisticVisualizer[0] statisticUnit "\"\""
par UseCase2.visualizer.statisticVisualizer[0] statisticExpression "\"\""
par UseCase2.visualizer.statisticVisualizer[0] sourceFilter "\"**\""
attr mutable ""
par UseCase2.visualizer.statisticVisualizer[0] format "\"%n: %v %u\""
attr mutable ""
par UseCase2.visualizer.statisticVisualizer[0] unit "\"\""
par UseCase2.visualizer.statisticVisualizer[0] font "\"<default>\""
par UseCase2.visualizer.statisticVisualizer[0] textColor "\"black\""
par UseCase2.visualizer.statisticVisualizer[0] backgroundColor "\"white\""
par UseCase2.visualizer.statisticVisualizer[0] opacity 1
par UseCase2.visualizer.statisticVisualizer[0] placementHint "\"top\""
par UseCase2.visualizer.statisticVisualizer[0] placementPriority 0
par UseCase2.visualizer.statisticVisualizer[0] zIndex 10
par UseCase2.visualizer.statisticVisualizer[0] propertyName "\"\""
par UseCase2.visualizer.statisticVisualizer[0] propertyIndex "\"\""
par UseCase2.visualizer.infoVisualizer[0] typename "\"inet.visualizer.canvas.common.InfoCanvasVisualizer\""
par UseCase2.visualizer.infoVisualizer[0] visualizationTargetModule "\"^.^\""
par UseCase2.visualizer.infoVisualizer[0] visualizationSubjectModule "\"^.^\""
par UseCase2.visualizer.infoVisualizer[0] tags "\"\""
par UseCase2.visualizer.infoVisualizer[0] networkNodeVisualizerModule "\"UseCase2.visualizer.networkNodeVisualizer[0]\""
par UseCase2.visualizer.infoVisualizer[0] displayInfos true
par UseCase2.visualizer.infoVisualizer[0] modules "\"**.clock\""
attr mutable ""
par UseCase2.visualizer.infoVisualizer[0] format "\"%t\""
attr mutable ""
par UseCase2.visualizer.infoVisualizer[0] font "\"<default>\""
par UseCase2.visualizer.infoVisualizer[0] textColor "\"black\""
par UseCase2.visualizer.infoVisualizer[0] backgroundColor "\"white\""
par UseCase2.visualizer.infoVisualizer[0] opacity 1
par UseCase2.visualizer.infoVisualizer[0] placementHint "\"bottom\""
par UseCase2.visualizer.infoVisualizer[0] placementPriority 0
par UseCase2.visualizer.infoVisualizer[0] zIndex 10
par UseCase2.visualizer.energyStorageVisualizer[0] typename "\"inet.visualizer.canvas.power.EnergyStorageCanvasVisualizer\""
par UseCase2.visualizer.energyStorageVisualizer[0] visualizationTargetModule "\"^.^\""
par UseCase2.visualizer.energyStorageVisualizer[0] visualizationSubjectModule "\"^.^\""
par UseCase2.visualizer.energyStorageVisualizer[0] tags "\"\""
par UseCase2.visualizer.energyStorageVisualizer[0] networkNodeVisualizerModule "\"UseCase2.visualizer.networkNodeVisualizer[0]\""
par UseCase2.visualizer.energyStorageVisualizer[0] displayEnergyStorages false
par UseCase2.visualizer.energyStorageVisualizer[0] energyStorageFilter "\"**\""
par UseCase2.visualizer.energyStorageVisualizer[0] color "\"green\""
par UseCase2.visualizer.energyStorageVisualizer[0] width 8
par UseCase2.visualizer.energyStorageVisualizer[0] height 24
par UseCase2.visualizer.energyStorageVisualizer[0] spacing 2
par UseCase2.visualizer.energyStorageVisualizer[0] placementHint "\"right\""
par UseCase2.visualizer.energyStorageVisualizer[0] placementPriority 0
par UseCase2.visualizer.energyStorageVisualizer[0] zIndex 10
par UseCase2.visualizer.mediumVisualizer[0] typename "\"inet.visualizer.canvas.physicallayer.MediumCanvasVisualizer\""
par UseCase2.visualizer.mediumVisualizer[0] visualizationTargetModule "\"^.^\""
par UseCase2.visualizer.mediumVisualizer[0] visualizationSubjectModule "\"^.^\""
par UseCase2.visualizer.mediumVisualizer[0] tags "\"\""
par UseCase2.visualizer.mediumVisualizer[0] mediumModule "\"radioMedium\""
par UseCase2.visualizer.mediumVisualizer[0] networkNodeVisualizerModule "\"UseCase2.visualizer.networkNodeVisualizer[0]\""
par UseCase2.visualizer.mediumVisualizer[0] nodeFilter "\"*\""
attr mutable ""
par UseCase2.visualizer.mediumVisualizer[0] interfaceFilter "\"*\""
attr mutable ""
par UseCase2.visualizer.mediumVisualizer[0] packetFilter "(omnetpp::cValueHolder)holder: \"*\""
attr mutable ""
par UseCase2.visualizer.mediumVisualizer[0] displaySignals false
par UseCase2.visualizer.mediumVisualizer[0] signalColor "\"dark\""
attr enum light,dark
par UseCase2.visualizer.mediumVisualizer[0] signalPropagationAnimationSpeed "nan "
attr mutable ""
par UseCase2.visualizer.mediumVisualizer[0] signalPropagationAnimationTime 1s
attr unit s
par UseCase2.visualizer.mediumVisualizer[0] signalPropagationAdditionalTime 0s
attr unit s
par UseCase2.visualizer.mediumVisualizer[0] signalTransmissionAnimationSpeed "nan "
attr mutable ""
par UseCase2.visualizer.mediumVisualizer[0] signalTransmissionAnimationTime 1s
attr unit s
par UseCase2.visualizer.mediumVisualizer[0] signalAnimationSpeedChangeTimeMode "\"realTime\""
attr enum realTime,animationTime,simulationTime
par UseCase2.visualizer.mediumVisualizer[0] signalAnimationSpeedChangeTime 1s
attr unit s
par UseCase2.visualizer.mediumVisualizer[0] displaySignalDepartures false
par UseCase2.visualizer.mediumVisualizer[0] signalDepartureImage "\"misc/signal_departure.png\""
par UseCase2.visualizer.mediumVisualizer[0] signalDeparturePlacementHint "\"topCenter\""
par UseCase2.visualizer.mediumVisualizer[0] signalDeparturePlacementPriority 1
par UseCase2.visualizer.mediumVisualizer[0] displaySignalArrivals false
par UseCase2.visualizer.mediumVisualizer[0] signalArrivalImage "\"misc/signal_arrival.png\""
par UseCase2.visualizer.mediumVisualizer[0] signalArrivalPlacementHint "\"topCenter\""
par UseCase2.visualizer.mediumVisualizer[0] signalArrivalPlacementPriority -1
par UseCase2.visualizer.mediumVisualizer[0] displayCommunicationRanges false
par UseCase2.visualizer.mediumVisualizer[0] communicationRangeLineColor "\"blue\""
par UseCase2.visualizer.mediumVisualizer[0] communicationRangeLineStyle "\"solid\""
par UseCase2.visualizer.mediumVisualizer[0] communicationRangeLineWidth 1
par UseCase2.visualizer.mediumVisualizer[0] displayInterferenceRanges false
par UseCase2.visualizer.mediumVisualizer[0] interferenceRangeLineColor "\"gray\""
par UseCase2.visualizer.mediumVisualizer[0] interferenceRangeLineStyle "\"solid\""
par UseCase2.visualizer.mediumVisualizer[0] interferenceRangeLineWidth 1
par UseCase2.visualizer.mediumVisualizer[0] autoPowerAxis true
par UseCase2.visualizer.mediumVisualizer[0] signalMinPower "inf dBmW"
attr unit dBmW
par UseCase2.visualizer.mediumVisualizer[0] signalMaxPower 0dBmW
attr unit dBmW
par UseCase2.visualizer.mediumVisualizer[0] signalMinPowerDensity "inf dBmWpMHz"
attr unit dBmWpMHz
par UseCase2.visualizer.mediumVisualizer[0] signalMaxPowerDensity "-inf dBmWpMHz"
attr unit dBmWpMHz
par UseCase2.visualizer.mediumVisualizer[0] autoTimeAxis true
par UseCase2.visualizer.mediumVisualizer[0] signalMinTime 0s
attr unit s
par UseCase2.visualizer.mediumVisualizer[0] signalMaxTime 0s
attr unit s
par UseCase2.visualizer.mediumVisualizer[0] autoFrequencyAxis true
par UseCase2.visualizer.mediumVisualizer[0] signalMinFrequency "inf Hz"
attr unit Hz
par UseCase2.visualizer.mediumVisualizer[0] signalMaxFrequency "-inf Hz"
attr unit Hz
par UseCase2.visualizer.mediumVisualizer[0] displayMainPowerDensityMap false
par UseCase2.visualizer.mediumVisualizer[0] mainPowerDensityMapPixmapDensity 1
par UseCase2.visualizer.mediumVisualizer[0] mainPowerDensityMapMinX 0
par UseCase2.visualizer.mediumVisualizer[0] mainPowerDensityMapMaxX "nan "
par UseCase2.visualizer.mediumVisualizer[0] mainPowerDensityMapMinY 0
par UseCase2.visualizer.mediumVisualizer[0] mainPowerDensityMapMaxY "nan "
par UseCase2.visualizer.mediumVisualizer[0] mainPowerDensityMapZ 0
par UseCase2.visualizer.mediumVisualizer[0] mainPowerDensityMapFigureXTickCount 3
par UseCase2.visualizer.mediumVisualizer[0] mainPowerDensityMapFigureYTickCount 3
par UseCase2.visualizer.mediumVisualizer[0] displayPowerDensityMaps false
par UseCase2.visualizer.mediumVisualizer[0] powerDensityMapMode "\"auto\""
attr enum total,signal,auto
par UseCase2.visualizer.mediumVisualizer[0] powerDensityMapPixelMode "\"mean\""
attr enum sample,partition,mean
par UseCase2.visualizer.mediumVisualizer[0] powerDensityMapApproximationSize 10
par UseCase2.visualizer.mediumVisualizer[0] powerDensityMapCenterFrequency "nan Hz"
attr mutable ""
attr unit Hz
par UseCase2.visualizer.mediumVisualizer[0] powerDensityMapBandwidth 0Hz
attr mutable ""
attr unit Hz
par UseCase2.visualizer.mediumVisualizer[0] powerDensityMapFigureWidth 200
par UseCase2.visualizer.mediumVisualizer[0] powerDensityMapFigureHeight 120
par UseCase2.visualizer.mediumVisualizer[0] powerDensityMapPixmapWidth 200
par UseCase2.visualizer.mediumVisualizer[0] powerDensityMapPixmapHeight 120
par UseCase2.visualizer.mediumVisualizer[0] powerDensityMapZ 0
par UseCase2.visualizer.mediumVisualizer[0] powerDensityMapFigureXTickCount 3
par UseCase2.visualizer.mediumVisualizer[0] powerDensityMapFigureYTickCount 3
par UseCase2.visualizer.mediumVisualizer[0] displaySpectrums false
par UseCase2.visualizer.mediumVisualizer[0] spectrumMode "\"auto\""
attr enum total,signal,auto
par UseCase2.visualizer.mediumVisualizer[0] spectrumFigureWidth 200
par UseCase2.visualizer.mediumVisualizer[0] spectrumFigureHeight 120
par UseCase2.visualizer.mediumVisualizer[0] spectrumFigureXTickCount 3
par UseCase2.visualizer.mediumVisualizer[0] spectrumFigureYTickCount 5
par UseCase2.visualizer.mediumVisualizer[0] spectrumFigureInterpolationSize 5
par UseCase2.visualizer.mediumVisualizer[0] spectrumPlacementHint "\"bottomCenter\""
par UseCase2.visualizer.mediumVisualizer[0] spectrumPlacementPriority -1
par UseCase2.visualizer.mediumVisualizer[0] displaySpectrograms false
par UseCase2.visualizer.mediumVisualizer[0] spectrogramMode "\"auto\""
attr enum total,signal,auto
par UseCase2.visualizer.mediumVisualizer[0] spectrogramPixelMode "\"mean\""
attr enum sample,partition,mean
par UseCase2.visualizer.mediumVisualizer[0] spectrogramFigureWidth 200
par UseCase2.visualizer.mediumVisualizer[0] spectrogramFigureHeight 120
par UseCase2.visualizer.mediumVisualizer[0] spectrogramPixmapWidth 200
par UseCase2.visualizer.mediumVisualizer[0] spectrogramPixmapHeight 120
par UseCase2.visualizer.mediumVisualizer[0] spectrogramFigureXTickCount 3
par UseCase2.visualizer.mediumVisualizer[0] spectrogramFigureYTickCount 5
par UseCase2.visualizer.mediumVisualizer[0] spectrogramPlacementHint "\"bottomCenter\""
par UseCase2.visualizer.mediumVisualizer[0] spectrogramPlacementPriority -1
par UseCase2.visualizer.mediumVisualizer[0] zIndex 0
par UseCase2.visualizer.mediumVisualizer[0] signalShape "\"ring\""
attr enum ring,sphere
par UseCase2.visualizer.mediumVisualizer[0] signalOpacity 0.5
par UseCase2.visualizer.mediumVisualizer[0] signalRingCount 20
par UseCase2.visualizer.mediumVisualizer[0] signalRingSize 50m
attr unit m
par UseCase2.visualizer.mediumVisualizer[0] signalFadingDistance 50m
attr unit m
par UseCase2.visualizer.mediumVisualizer[0] signalFadingFactor 1.2
par UseCase2.visualizer.mediumVisualizer[0] signalWaveCount 20
par UseCase2.visualizer.mediumVisualizer[0] signalWaveLength 50m
attr unit m
par UseCase2.visualizer.mediumVisualizer[0] signalWaveWidth 10m
attr unit m
par UseCase2.visualizer.mediumVisualizer[0] signalWaveFadingAnimationSpeedFactor 1
par UseCase2.visualizer.mediumVisualizer[0] displayCommunicationHeat false
par UseCase2.visualizer.obstacleLossVisualizer[0] typename "\"inet.visualizer.canvas.physicallayer.TracingObstacleLossCanvasVisualizer\""
par UseCase2.visualizer.obstacleLossVisualizer[0] visualizationTargetModule "\"^.^\""
par UseCase2.visualizer.obstacleLossVisualizer[0] visualizationSubjectModule "\"^.^\""
par UseCase2.visualizer.obstacleLossVisualizer[0] tags "\"\""
par UseCase2.visualizer.obstacleLossVisualizer[0] displayIntersections false
par UseCase2.visualizer.obstacleLossVisualizer[0] intersectionLineColor "\"red\""
par UseCase2.visualizer.obstacleLossVisualizer[0] intersectionLineStyle "\"solid\""
par UseCase2.visualizer.obstacleLossVisualizer[0] intersectionLineWidth 1
par UseCase2.visualizer.obstacleLossVisualizer[0] displayFaceNormalVectors false
par UseCase2.visualizer.obstacleLossVisualizer[0] faceNormalLineColor "\"grey\""
par UseCase2.visualizer.obstacleLossVisualizer[0] faceNormalLineStyle "\"solid\""
par UseCase2.visualizer.obstacleLossVisualizer[0] faceNormalLineWidth 1
par UseCase2.visualizer.obstacleLossVisualizer[0] fadeOutMode "\"realTime\""
attr enum realTime,animationTime,simulationTime
par UseCase2.visualizer.obstacleLossVisualizer[0] fadeOutTime 1s
attr unit s
par UseCase2.visualizer.obstacleLossVisualizer[0] fadeOutAnimationSpeed 0
par UseCase2.visualizer.obstacleLossVisualizer[0] zIndex 0
par UseCase2.visualizer.packetDropVisualizer[0] typename "\"inet.visualizer.canvas.common.PacketDropCanvasVisualizer\""
par UseCase2.visualizer.packetDropVisualizer[0] visualizationTargetModule "\"^.^\""
par UseCase2.visualizer.packetDropVisualizer[0] visualizationSubjectModule "\"^.^\""
par UseCase2.visualizer.packetDropVisualizer[0] tags "\"\""
par UseCase2.visualizer.packetDropVisualizer[0] displayPacketDrops false
par UseCase2.visualizer.packetDropVisualizer[0] nodeFilter "\"*\""
attr mutable ""
par UseCase2.visualizer.packetDropVisualizer[0] interfaceFilter "\"*\""
attr mutable ""
par UseCase2.visualizer.packetDropVisualizer[0] packetFilter "(omnetpp::cValueHolder)holder: \"*\""
attr mutable ""
par UseCase2.visualizer.packetDropVisualizer[0] detailsFilter "\"*\""
attr mutable ""
par UseCase2.visualizer.packetDropVisualizer[0] icon "\"msg/packet_s\""
par UseCase2.visualizer.packetDropVisualizer[0] iconTintAmount 1
par UseCase2.visualizer.packetDropVisualizer[0] iconTintColor "\"dark\""
par UseCase2.visualizer.packetDropVisualizer[0] labelFormat "\"%n\""
attr mutable ""
par UseCase2.visualizer.packetDropVisualizer[0] labelFont "\"<default>\""
par UseCase2.visualizer.packetDropVisualizer[0] labelColor "\"black\""
par UseCase2.visualizer.packetDropVisualizer[0] fadeOutMode "\"realTime\""
attr enum realTime,animationTime,simulationTime
par UseCase2.visualizer.packetDropVisualizer[0] fadeOutTime 1s
attr unit s
par UseCase2.visualizer.packetDropVisualizer[0] fadeOutAnimationSpeed 0
par UseCase2.visualizer.packetDropVisualizer[0] zIndex 10
par UseCase2.visualizer.packetDropVisualizer[0] dx 32
par UseCase2.visualizer.packetDropVisualizer[0] dy 64
par UseCase2.visualizer.queueVisualizer[0] typename "\"inet.visualizer.canvas.common.QueueCanvasVisualizer\""
par UseCase2.visualizer.queueVisualizer[0] visualizationTargetModule "\"^.^\""
par UseCase2.visualizer.queueVisualizer[0] visualizationSubjectModule "\"^.^\""
par UseCase2.visualizer.queueVisualizer[0] tags "\"\""
par UseCase2.visualizer.queueVisualizer[0] networkNodeVisualizerModule "\"UseCase2.visualizer.networkNodeVisualizer[0]\""
par UseCase2.visualizer.queueVisualizer[0] displayQueues false
par UseCase2.visualizer.queueVisualizer[0] queueFilter "\"**\""
par UseCase2.visualizer.queueVisualizer[0] color "\"blue\""
par UseCase2.visualizer.queueVisualizer[0] width 8
par UseCase2.visualizer.queueVisualizer[0] height 24
par UseCase2.visualizer.queueVisualizer[0] spacing 2
par UseCase2.visualizer.queueVisualizer[0] placementHint "\"right\""
par UseCase2.visualizer.queueVisualizer[0] placementPriority 0
par UseCase2.visualizer.queueVisualizer[0] zIndex 10
par UseCase2.visualizer.gateScheduleVisualizer[0] typename "\"inet.visualizer.canvas.common.GateScheduleCanvasVisualizer\""
par UseCase2.visualizer.gateScheduleVisualizer[0] visualizationTargetModule "\"^.^\""
par UseCase2.visualizer.gateScheduleVisualizer[0] visualizationSubjectModule "\"^.^\""
par UseCase2.visualizer.gateScheduleVisualizer[0] tags "\"\""
par UseCase2.visualizer.gateScheduleVisualizer[0] networkNodeVisualizerModule "\"UseCase2.visualizer.networkNodeVisualizer[0]\""
par UseCase2.visualizer.gateScheduleVisualizer[0] displayGateSchedules false
par UseCase2.visualizer.gateScheduleVisualizer[0] labelFormat "\"%i %D\""
par UseCase2.visualizer.gateScheduleVisualizer[0] gateFilter "\"**\""
par UseCase2.visualizer.gateScheduleVisualizer[0] width 100
par UseCase2.visualizer.gateScheduleVisualizer[0] height 8
par UseCase2.visualizer.gateScheduleVisualizer[0] spacing 2
par UseCase2.visualizer.gateScheduleVisualizer[0] placementHint "\"right\""
par UseCase2.visualizer.gateScheduleVisualizer[0] placementPriority 0
par UseCase2.visualizer.gateScheduleVisualizer[0] displayDuration 0s
attr mutable ""
attr unit s
par UseCase2.visualizer.gateScheduleVisualizer[0] currentTimePosition 50
par UseCase2.visualizer.gateScheduleVisualizer[0] zIndex 10
par UseCase2.visualizer.radioVisualizer[0] typename "\"inet.visualizer.canvas.physicallayer.RadioCanvasVisualizer\""
par UseCase2.visualizer.radioVisualizer[0] visualizationTargetModule "\"^.^\""
par UseCase2.visualizer.radioVisualizer[0] visualizationSubjectModule "\"^.^\""
par UseCase2.visualizer.radioVisualizer[0] tags "\"\""
par UseCase2.visualizer.radioVisualizer[0] networkNodeVisualizerModule "\"UseCase2.visualizer.networkNodeVisualizer[0]\""
par UseCase2.visualizer.radioVisualizer[0] displayRadios false
par UseCase2.visualizer.radioVisualizer[0] displayRadioMode true
par UseCase2.visualizer.radioVisualizer[0] displayReceptionState true
par UseCase2.visualizer.radioVisualizer[0] displayTransmissionState true
par UseCase2.visualizer.radioVisualizer[0] displayAntennaLobes false
par UseCase2.visualizer.radioVisualizer[0] radioFilter "\"**\""
attr mutable ""
par UseCase2.visualizer.radioVisualizer[0] radioModeImages "\"block/process_vs block/timer_vs block/wrx_vs block/wtx_vs block/wrxtx_vs block/cogwheel_vs\""
par UseCase2.visualizer.radioVisualizer[0] receptionStateImages "\"- - misc/receiving misc/receiving\""
par UseCase2.visualizer.radioVisualizer[0] transmissionStateImages "\"- - misc/transmitting\""
par UseCase2.visualizer.radioVisualizer[0] width 16
par UseCase2.visualizer.radioVisualizer[0] height 16
par UseCase2.visualizer.radioVisualizer[0] placementHint "\"bottomRight\""
par UseCase2.visualizer.radioVisualizer[0] placementPriority 0
par UseCase2.visualizer.radioVisualizer[0] antennaLobeNormalize false
par UseCase2.visualizer.radioVisualizer[0] antennaLobeRelativeLabels false
par UseCase2.visualizer.radioVisualizer[0] antennaLobePlaneGlobal true
par UseCase2.visualizer.radioVisualizer[0] antennaLobePlane "\"view\""
attr enum view,xy,xz,yz
par UseCase2.visualizer.radioVisualizer[0] antennaLobeMode "\"logarithmic\""
attr enum logarithmic,linear
par UseCase2.visualizer.radioVisualizer[0] antennaLobeLogarithmicBase 10
par UseCase2.visualizer.radioVisualizer[0] antennaLobeLogarithmicScale 100
par UseCase2.visualizer.radioVisualizer[0] antennaLobeRadius 100
par UseCase2.visualizer.radioVisualizer[0] antennaLobeStep 10deg
attr unit deg
par UseCase2.visualizer.radioVisualizer[0] antennaLobeOpacity 0.25
par UseCase2.visualizer.radioVisualizer[0] antennaLobeLineSmooth true
par UseCase2.visualizer.radioVisualizer[0] antennaLobeLineColor "\"black\""
par UseCase2.visualizer.radioVisualizer[0] antennaLobeLineStyle "\"solid\""
par UseCase2.visualizer.radioVisualizer[0] antennaLobeLineWidth 1
par UseCase2.visualizer.radioVisualizer[0] antennaLobeFillColor "\"white\""
par UseCase2.visualizer.radioVisualizer[0] zIndex 10
par UseCase2.visualizer.physicalLinkVisualizer[0] typename "\"inet.visualizer.canvas.physicallayer.PhysicalLinkCanvasVisualizer\""
par UseCase2.visualizer.physicalLinkVisualizer[0] visualizationTargetModule "\"^.^\""
par UseCase2.visualizer.physicalLinkVisualizer[0] visualizationSubjectModule "\"^.^\""
par UseCase2.visualizer.physicalLinkVisualizer[0] tags "\"\""
par UseCase2.visualizer.physicalLinkVisualizer[0] displayLinks false
par UseCase2.visualizer.physicalLinkVisualizer[0] activityLevel "\"service\""
attr enum service,peer,protocol
par UseCase2.visualizer.physicalLinkVisualizer[0] nodeFilter "\"*\""
attr mutable ""
par UseCase2.visualizer.physicalLinkVisualizer[0] interfaceFilter "\"*\""
attr mutable ""
par UseCase2.visualizer.physicalLinkVisualizer[0] packetFilter "(omnetpp::cValueHolder)holder: \"*\""
attr mutable ""
par UseCase2.visualizer.physicalLinkVisualizer[0] lineColor "\"olive\""
par UseCase2.visualizer.physicalLinkVisualizer[0] lineStyle "\"dotted\""
par UseCase2.visualizer.physicalLinkVisualizer[0] lineWidth 3
par UseCase2.visualizer.physicalLinkVisualizer[0] lineShift 16
par UseCase2.visualizer.physicalLinkVisualizer[0] lineShiftMode "\"normal\""
par UseCase2.visualizer.physicalLinkVisualizer[0] lineContactSpacing 3
par UseCase2.visualizer.physicalLinkVisualizer[0] lineContactMode "\"rectangular\""
attr enum circular,rectangular
par UseCase2.visualizer.physicalLinkVisualizer[0] labelFormat "\"%n\""
par UseCase2.visualizer.physicalLinkVisualizer[0] labelFont "\"<default>, 8px\""
par UseCase2.visualizer.physicalLinkVisualizer[0] labelColor "\"olive\""
par UseCase2.visualizer.physicalLinkVisualizer[0] fadeOutMode "\"realTime\""
attr enum realTime,animationTime,simulationTime
par UseCase2.visualizer.physicalLinkVisualizer[0] fadeOutTime 1s
attr unit s
par UseCase2.visualizer.physicalLinkVisualizer[0] fadeOutAnimationSpeed 0
par UseCase2.visualizer.physicalLinkVisualizer[0] holdAnimationTime 0s
attr unit s
par UseCase2.visualizer.physicalLinkVisualizer[0] zIndex 1
par UseCase2.visualizer.interfaceTableVisualizer[0] typename "\"inet.visualizer.canvas.linklayer.InterfaceTableCanvasVisualizer\""
par UseCase2.visualizer.interfaceTableVisualizer[0] visualizationTargetModule "\"^.^\""
par UseCase2.visualizer.interfaceTableVisualizer[0] visualizationSubjectModule "\"^.^\""
par UseCase2.visualizer.interfaceTableVisualizer[0] tags "\"\""
par UseCase2.visualizer.interfaceTableVisualizer[0] networkNodeVisualizerModule "\"UseCase2.visualizer.networkNodeVisualizer[0]\""
par UseCase2.visualizer.interfaceTableVisualizer[0] displayInterfaceTables false
par UseCase2.visualizer.interfaceTableVisualizer[0] displayWiredInterfacesAtConnections true
par UseCase2.visualizer.interfaceTableVisualizer[0] displayBackground false
par UseCase2.visualizer.interfaceTableVisualizer[0] nodeFilter "\"*\""
attr mutable ""
par UseCase2.visualizer.interfaceTableVisualizer[0] interfaceFilter "\"not(lo*)\""
attr mutable ""
par UseCase2.visualizer.interfaceTableVisualizer[0] format "\"%N %\\\\%a%/%l\""
attr mutable ""
par UseCase2.visualizer.interfaceTableVisualizer[0] placementHint "\"top\""
par UseCase2.visualizer.interfaceTableVisualizer[0] placementPriority 0
par UseCase2.visualizer.interfaceTableVisualizer[0] font "\"<default>\""
par UseCase2.visualizer.interfaceTableVisualizer[0] textColor "\"#005030\""
par UseCase2.visualizer.interfaceTableVisualizer[0] backgroundColor "\"white\""
par UseCase2.visualizer.interfaceTableVisualizer[0] opacity 1
par UseCase2.visualizer.interfaceTableVisualizer[0] zIndex 10
par UseCase2.visualizer.interfaceTableVisualizer[0] anchor "\"l\""
attr enum l,r,t
par UseCase2.visualizer.dataLinkVisualizer[0] typename "\"inet.visualizer.canvas.linklayer.DataLinkCanvasVisualizer\""
par UseCase2.visualizer.dataLinkVisualizer[0] visualizationTargetModule "\"^.^\""
par UseCase2.visualizer.dataLinkVisualizer[0] visualizationSubjectModule "\"^.^\""
par UseCase2.visualizer.dataLinkVisualizer[0] tags "\"\""
par UseCase2.visualizer.dataLinkVisualizer[0] displayLinks false
par UseCase2.visualizer.dataLinkVisualizer[0] activityLevel "\"service\""
attr enum service,peer,protocol
par UseCase2.visualizer.dataLinkVisualizer[0] nodeFilter "\"*\""
attr mutable ""
par UseCase2.visualizer.dataLinkVisualizer[0] interfaceFilter "\"*\""
attr mutable ""
par UseCase2.visualizer.dataLinkVisualizer[0] packetFilter "(omnetpp::cValueHolder)holder: \"*\""
attr mutable ""
par UseCase2.visualizer.dataLinkVisualizer[0] lineColor "\"darkcyan\""
par UseCase2.visualizer.dataLinkVisualizer[0] lineStyle "\"solid\""
par UseCase2.visualizer.dataLinkVisualizer[0] lineWidth 3
par UseCase2.visualizer.dataLinkVisualizer[0] lineShift 16
par UseCase2.visualizer.dataLinkVisualizer[0] lineShiftMode "\"normal\""
par UseCase2.visualizer.dataLinkVisualizer[0] lineContactSpacing 3
par UseCase2.visualizer.dataLinkVisualizer[0] lineContactMode "\"rectangular\""
attr enum circular,rectangular
par UseCase2.visualizer.dataLinkVisualizer[0] labelFormat "\"%n\""
par UseCase2.visualizer.dataLinkVisualizer[0] labelFont "\"<default>, 8px\""
par UseCase2.visualizer.dataLinkVisualizer[0] labelColor "\"darkcyan\""
par UseCase2.visualizer.dataLinkVisualizer[0] fadeOutMode "\"realTime\""
attr enum realTime,animationTime,simulationTime
par UseCase2.visualizer.dataLinkVisualizer[0] fadeOutTime 1s
attr unit s
par UseCase2.visualizer.dataLinkVisualizer[0] fadeOutAnimationSpeed 0
par UseCase2.visualizer.dataLinkVisualizer[0] holdAnimationTime 0s
attr unit s
par UseCase2.visualizer.dataLinkVisualizer[0] zIndex 2
par UseCase2.visualizer.linkBreakVisualizer[0] typename "\"inet.visualizer.canvas.linklayer.LinkBreakCanvasVisualizer\""
par UseCase2.visualizer.linkBreakVisualizer[0] visualizationTargetModule "\"^.^\""
par UseCase2.visualizer.linkBreakVisualizer[0] visualizationSubjectModule "\"^.^\""
par UseCase2.visualizer.linkBreakVisualizer[0] tags "\"\""
par UseCase2.visualizer.linkBreakVisualizer[0] displayLinkBreaks false
par UseCase2.visualizer.linkBreakVisualizer[0] nodeFilter "\"*\""
attr mutable ""
par UseCase2.visualizer.linkBreakVisualizer[0] interfaceFilter "\"*\""
attr mutable ""
par UseCase2.visualizer.linkBreakVisualizer[0] packetFilter "(omnetpp::cValueHolder)holder: \"*\""
attr mutable ""
par UseCase2.visualizer.linkBreakVisualizer[0] icon "\"status/stop\""
par UseCase2.visualizer.linkBreakVisualizer[0] iconTintAmount 0
par UseCase2.visualizer.linkBreakVisualizer[0] iconTintColor "\"\""
par UseCase2.visualizer.linkBreakVisualizer[0] fadeOutMode "\"realTime\""
attr enum realTime,animationTime,simulationTime
par UseCase2.visualizer.linkBreakVisualizer[0] fadeOutTime 1s
attr unit s
par UseCase2.visualizer.linkBreakVisualizer[0] fadeOutAnimationSpeed 0
par UseCase2.visualizer.linkBreakVisualizer[0] zIndex 2
par UseCase2.visualizer.ieee80211Visualizer[0] typename "\"inet.visualizer.canvas.linklayer.Ieee80211CanvasVisualizer\""
par UseCase2.visualizer.ieee80211Visualizer[0] visualizationTargetModule "\"^.^\""
par UseCase2.visualizer.ieee80211Visualizer[0] visualizationSubjectModule "\"^.^\""
par UseCase2.visualizer.ieee80211Visualizer[0] tags "\"\""
par UseCase2.visualizer.ieee80211Visualizer[0] networkNodeVisualizerModule "\"UseCase2.visualizer.networkNodeVisualizer[0]\""
par UseCase2.visualizer.ieee80211Visualizer[0] displayAssociations false
par UseCase2.visualizer.ieee80211Visualizer[0] nodeFilter "\"*\""
attr mutable ""
par UseCase2.visualizer.ieee80211Visualizer[0] interfaceFilter "\"*\""
attr mutable ""
par UseCase2.visualizer.ieee80211Visualizer[0] minPower -85dBm
attr unit dBm
par UseCase2.visualizer.ieee80211Visualizer[0] maxPower -50dBm
attr unit dBm
par UseCase2.visualizer.ieee80211Visualizer[0] icons "\"misc/signal_power_0 misc/signal_power_1 misc/signal_power_2 misc/signal_power_3\""
par UseCase2.visualizer.ieee80211Visualizer[0] iconColor "\"dark\""
attr enum light,dark
par UseCase2.visualizer.ieee80211Visualizer[0] labelFont "\"<default>\""
par UseCase2.visualizer.ieee80211Visualizer[0] labelColor "\"black\""
par UseCase2.visualizer.ieee80211Visualizer[0] placementHint "\"top\""
par UseCase2.visualizer.ieee80211Visualizer[0] placementPriority 0
par UseCase2.visualizer.ieee80211Visualizer[0] zIndex 2
par UseCase2.visualizer.networkRouteVisualizer[0] typename "\"inet.visualizer.canvas.networklayer.NetworkRouteCanvasVisualizer\""
par UseCase2.visualizer.networkRouteVisualizer[0] visualizationTargetModule "\"^.^\""
par UseCase2.visualizer.networkRouteVisualizer[0] visualizationSubjectModule "\"^.^\""
par UseCase2.visualizer.networkRouteVisualizer[0] tags "\"\""
par UseCase2.visualizer.networkRouteVisualizer[0] displayRoutes false
par UseCase2.visualizer.networkRouteVisualizer[0] startPathSignal "\"packetReceivedFromUpper\""
par UseCase2.visualizer.networkRouteVisualizer[0] extendPathSignal "\"packetReceivedFromLower\""
par UseCase2.visualizer.networkRouteVisualizer[0] endPathSignal "\"packetSentToUpper\""
par UseCase2.visualizer.networkRouteVisualizer[0] nodeFilter "\"*\""
attr mutable ""
par UseCase2.visualizer.networkRouteVisualizer[0] packetFilter "(omnetpp::cValueHolder)holder: \"*\""
attr mutable ""
par UseCase2.visualizer.networkRouteVisualizer[0] lineColor "\"dark\""
attr enum light,dark
par UseCase2.visualizer.networkRouteVisualizer[0] lineStyle "\"solid\""
par UseCase2.visualizer.networkRouteVisualizer[0] lineWidth 3
par UseCase2.visualizer.networkRouteVisualizer[0] lineSmooth false
par UseCase2.visualizer.networkRouteVisualizer[0] lineShift 16
par UseCase2.visualizer.networkRouteVisualizer[0] lineShiftMode "\"normal\""
par UseCase2.visualizer.networkRouteVisualizer[0] lineContactSpacing 3
par UseCase2.visualizer.networkRouteVisualizer[0] lineContactMode "\"rectangular\""
attr enum circular,rectangular
par UseCase2.visualizer.networkRouteVisualizer[0] labelFormat "\"%n\""
par UseCase2.visualizer.networkRouteVisualizer[0] labelFont "\"<default>, 8px\""
par UseCase2.visualizer.networkRouteVisualizer[0] labelColor "\"\""
par UseCase2.visualizer.networkRouteVisualizer[0] fadeOutMode "\"realTime\""
attr enum realTime,animationTime,simulationTime
par UseCase2.visualizer.networkRouteVisualizer[0] fadeOutTime 1s
attr unit s
par UseCase2.visualizer.networkRouteVisualizer[0] fadeOutAnimationSpeed 0
par UseCase2.visualizer.networkRouteVisualizer[0] zIndex 3
par UseCase2.visualizer.routingTableVisualizer[0] typename "\"inet.visualizer.canvas.networklayer.RoutingTableCanvasVisualizer\""
par UseCase2.visualizer.routingTableVisualizer[0] visualizationTargetModule "\"^.^\""
par UseCase2.visualizer.routingTableVisualizer[0] visualizationSubjectModule "\"^.^\""
par UseCase2.visualizer.routingTableVisualizer[0] tags "\"\""
par UseCase2.visualizer.routingTableVisualizer[0] displayRoutingTables false
par UseCase2.visualizer.routingTableVisualizer[0] displayRoutesIndividually true
par UseCase2.visualizer.routingTableVisualizer[0] displayLabels true
par UseCase2.visualizer.routingTableVisualizer[0] destinationFilter "\"*\""
attr mutable ""
par UseCase2.visualizer.routingTableVisualizer[0] nodeFilter "\"*\""
attr mutable ""
par UseCase2.visualizer.routingTableVisualizer[0] multicastSourceNodeFilter "\"*\""
attr mutable ""
par UseCase2.visualizer.routingTableVisualizer[0] multicastSourceAddressFilter "\"*\""
attr mutable ""
par UseCase2.visualizer.routingTableVisualizer[0] multicastGroupFilter "\"*\""
attr mutable ""
par UseCase2.visualizer.routingTableVisualizer[0] lineColor "\"black\""
par UseCase2.visualizer.routingTableVisualizer[0] lineStyle "\"solid\""
par UseCase2.visualizer.routingTableVisualizer[0] lineWidth 2
par UseCase2.visualizer.routingTableVisualizer[0] lineShift 16
par UseCase2.visualizer.routingTableVisualizer[0] lineShiftMode "\"normal\""
par UseCase2.visualizer.routingTableVisualizer[0] lineContactSpacing 3
par UseCase2.visualizer.routingTableVisualizer[0] lineContactMode "\"rectangular\""
attr enum circular,rectangular
par UseCase2.visualizer.routingTableVisualizer[0] labelFormat "\"%d/%m -> %g (%n)\""
attr mutable ""
par UseCase2.visualizer.routingTableVisualizer[0] labelFont "\"<default>, 8px\""
par UseCase2.visualizer.routingTableVisualizer[0] labelColor "\"black\""
par UseCase2.visualizer.routingTableVisualizer[0] zIndex 0
par UseCase2.visualizer.transportRouteVisualizer[0] typename "\"inet.visualizer.canvas.transportlayer.TransportRouteCanvasVisualizer\""
par UseCase2.visualizer.transportRouteVisualizer[0] visualizationTargetModule "\"^.^\""
par UseCase2.visualizer.transportRouteVisualizer[0] visualizationSubjectModule "\"^.^\""
par UseCase2.visualizer.transportRouteVisualizer[0] tags "\"\""
par UseCase2.visualizer.transportRouteVisualizer[0] displayRoutes false
par UseCase2.visualizer.transportRouteVisualizer[0] startPathSignal "\"packetReceivedFromUpper\""
par UseCase2.visualizer.transportRouteVisualizer[0] extendPathSignal "\"packetReceivedFromLower\""
par UseCase2.visualizer.transportRouteVisualizer[0] endPathSignal "\"packetSentToUpper\""
par UseCase2.visualizer.transportRouteVisualizer[0] nodeFilter "\"*\""
attr mutable ""
par UseCase2.visualizer.transportRouteVisualizer[0] packetFilter "(omnetpp::cValueHolder)holder: \"*\""
attr mutable ""
par UseCase2.visualizer.transportRouteVisualizer[0] lineColor "\"dark\""
attr enum light,dark
par UseCase2.visualizer.transportRouteVisualizer[0] lineStyle "\"solid\""
par UseCase2.visualizer.transportRouteVisualizer[0] lineWidth 3
par UseCase2.visualizer.transportRouteVisualizer[0] lineSmooth false
par UseCase2.visualizer.transportRouteVisualizer[0] lineShift 16
par UseCase2.visualizer.transportRouteVisualizer[0] lineShiftMode "\"normal\""
par UseCase2.visualizer.transportRouteVisualizer[0] lineContactSpacing 3
par UseCase2.visualizer.transportRouteVisualizer[0] lineContactMode "\"rectangular\""
attr enum circular,rectangular
par UseCase2.visualizer.transportRouteVisualizer[0] labelFormat "\"%n\""
par UseCase2.visualizer.transportRouteVisualizer[0] labelFont "\"<default>, 8px\""
par UseCase2.visualizer.transportRouteVisualizer[0] labelColor "\"\""
par UseCase2.visualizer.transportRouteVisualizer[0] fadeOutMode "\"realTime\""
attr enum realTime,animationTime,simulationTime
par UseCase2.visualizer.transportRouteVisualizer[0] fadeOutTime 1s
attr unit s
par UseCase2.visualizer.transportRouteVisualizer[0] fadeOutAnimationSpeed 0
par UseCase2.visualizer.transportRouteVisualizer[0] zIndex 4
par UseCase2.visualizer.transportConnectionVisualizer[0] typename "\"inet.visualizer.canvas.transportlayer.TransportConnectionCanvasVisualizer\""
par UseCase2.visualizer.transportConnectionVisualizer[0] visualizationTargetModule "\"^.^\""
par UseCase2.visualizer.transportConnectionVisualizer[0] visualizationSubjectModule "\"^.^\""
par UseCase2.visualizer.transportConnectionVisualizer[0] tags "\"\""
par UseCase2.visualizer.transportConnectionVisualizer[0] networkNodeVisualizerModule "\"UseCase2.visualizer.networkNodeVisualizer[0]\""
par UseCase2.visualizer.transportConnectionVisualizer[0] displayTransportConnections false
par UseCase2.visualizer.transportConnectionVisualizer[0] sourceNodeFilter "\"*\""
attr mutable ""
par UseCase2.visualizer.transportConnectionVisualizer[0] sourcePortFilter "\"*\""
attr mutable ""
par UseCase2.visualizer.transportConnectionVisualizer[0] destinationNodeFilter "\"*\""
attr mutable ""
par UseCase2.visualizer.transportConnectionVisualizer[0] destinationPortFilter "\"*\""
attr mutable ""
par UseCase2.visualizer.transportConnectionVisualizer[0] icon "\"misc/marker_s\""
par UseCase2.visualizer.transportConnectionVisualizer[0] iconColor "\"dark\""
attr enum light,dark
par UseCase2.visualizer.transportConnectionVisualizer[0] labelFont "\"<default>\""
par UseCase2.visualizer.transportConnectionVisualizer[0] labelColor "\"black\""
par UseCase2.visualizer.transportConnectionVisualizer[0] placementHint "\"top\""
par UseCase2.visualizer.transportConnectionVisualizer[0] placementPriority 0
par UseCase2.visualizer.transportConnectionVisualizer[0] zIndex 4
par UseCase2.visualizer.failureProtectionConfigurationVisualizer[0] typename "\"inet.visualizer.canvas.configurator.FailureProtectionConfigurationCanvasVisualizer\""
par UseCase2.visualizer.failureProtectionConfigurationVisualizer[0] visualizationTargetModule "\"^.^\""
par UseCase2.visualizer.failureProtectionConfigurationVisualizer[0] visualizationSubjectModule "\"^.^\""
par UseCase2.visualizer.failureProtectionConfigurationVisualizer[0] tags "\"\""
par UseCase2.visualizer.failureProtectionConfigurationVisualizer[0] displayTrees false
par UseCase2.visualizer.failureProtectionConfigurationVisualizer[0] lineColor "\"dark\""
attr enum light,dark
par UseCase2.visualizer.failureProtectionConfigurationVisualizer[0] lineStyle "\"solid\""
par UseCase2.visualizer.failureProtectionConfigurationVisualizer[0] lineWidth 3
par UseCase2.visualizer.failureProtectionConfigurationVisualizer[0] lineSmooth false
par UseCase2.visualizer.failureProtectionConfigurationVisualizer[0] lineShift 16
par UseCase2.visualizer.failureProtectionConfigurationVisualizer[0] lineShiftMode "\"normal\""
par UseCase2.visualizer.failureProtectionConfigurationVisualizer[0] lineContactSpacing 3
par UseCase2.visualizer.failureProtectionConfigurationVisualizer[0] lineContactMode "\"rectangular\""
attr enum circular,rectangular
par UseCase2.visualizer.failureProtectionConfigurationVisualizer[0] failureProtectionConfiguratorModule "\"failureProtectionConfigurator\""
par UseCase2.visualizer.failureProtectionConfigurationVisualizer[0] streamFilter "\"*\""
par UseCase2.visualizer.failureProtectionConfigurationVisualizer[0] zIndex 3
par UseCase2.visualizer.streamRedundancyConfigurationVisualizer[0] typename "\"inet.visualizer.canvas.configurator.StreamRedundancyConfigurationCanvasVisualizer\""
par UseCase2.visualizer.streamRedundancyConfigurationVisualizer[0] visualizationTargetModule "\"^.^\""
par UseCase2.visualizer.streamRedundancyConfigurationVisualizer[0] visualizationSubjectModule "\"^.^\""
par UseCase2.visualizer.streamRedundancyConfigurationVisualizer[0] tags "\"\""
par UseCase2.visualizer.streamRedundancyConfigurationVisualizer[0] displayTrees false
par UseCase2.visualizer.streamRedundancyConfigurationVisualizer[0] lineColor "\"dark\""
attr enum light,dark
par UseCase2.visualizer.streamRedundancyConfigurationVisualizer[0] lineStyle "\"solid\""
par UseCase2.visualizer.streamRedundancyConfigurationVisualizer[0] lineWidth 3
par UseCase2.visualizer.streamRedundancyConfigurationVisualizer[0] lineSmooth false
par UseCase2.visualizer.streamRedundancyConfigurationVisualizer[0] lineShift 16
par UseCase2.visualizer.streamRedundancyConfigurationVisualizer[0] lineShiftMode "\"normal\""
par UseCase2.visualizer.streamRedundancyConfigurationVisualizer[0] lineContactSpacing 3
par UseCase2.visualizer.streamRedundancyConfigurationVisualizer[0] lineContactMode "\"rectangular\""
attr enum circular,rectangular
par UseCase2.visualizer.streamRedundancyConfigurationVisualizer[0] streamRedundancyConfiguratorModule "\"streamRedundancyConfigurator\""
par UseCase2.visualizer.streamRedundancyConfigurationVisualizer[0] streamFilter "\"*\""
par UseCase2.visualizer.streamRedundancyConfigurationVisualizer[0] zIndex 3
par UseCase2.visualizer.channelVisualizer[0] typename "\"inet.visualizer.canvas.physicallayer.ChannelCanvasVisualizer\""
par UseCase2.visualizer.channelVisualizer[0] visualizationTargetModule "\"^.^\""
par UseCase2.visualizer.channelVisualizer[0] visualizationSubjectModule "\"^.^\""
par UseCase2.visualizer.channelVisualizer[0] tags "\"\""
par UseCase2.visualizer.channelVisualizer[0] displayChannelActivity false
par UseCase2.visualizer.channelVisualizer[0] nodeFilter "\"*\""
attr mutable ""
par UseCase2.visualizer.channelVisualizer[0] packetFilter "(omnetpp::cValueHolder)holder: \"*\""
attr mutable ""
par UseCase2.visualizer.channelVisualizer[0] lineColor "\"blue\""
par UseCase2.visualizer.channelVisualizer[0] lineStyle "\"solid\""
par UseCase2.visualizer.channelVisualizer[0] lineWidth 3
par UseCase2.visualizer.channelVisualizer[0] lineShift 16
par UseCase2.visualizer.channelVisualizer[0] lineShiftMode "\"normal\""
par UseCase2.visualizer.channelVisualizer[0] lineContactSpacing 3
par UseCase2.visualizer.channelVisualizer[0] lineContactMode "\"rectangular\""
attr enum circular,rectangular
par UseCase2.visualizer.channelVisualizer[0] labelFormat "\"%n\""
par UseCase2.visualizer.channelVisualizer[0] labelFont "\"<default>, 8px\""
par UseCase2.visualizer.channelVisualizer[0] labelColor "\"blue\""
par UseCase2.visualizer.channelVisualizer[0] fadeOutMode "\"realTime\""
attr enum realTime,animationTime,simulationTime
par UseCase2.visualizer.channelVisualizer[0] fadeOutTime 1s
attr unit s
par UseCase2.visualizer.channelVisualizer[0] fadeOutAnimationSpeed 0
par UseCase2.visualizer.channelVisualizer[0] holdAnimationTime 0s
attr unit s
par UseCase2.visualizer.channelVisualizer[0] zIndex 1
par UseCase2.visualizer typename "\"inet.visualizer.canvas.integrated.IntegratedMultiCanvasVisualizer\""
par UseCase2.visualizer numSceneVisualizers 1
par UseCase2.visualizer numPhysicalEnvironmentVisualizers 1
par UseCase2.visualizer numNetworkNodeVisualizers 1
par UseCase2.visualizer numNetworkConnectionVisualizers 1
par UseCase2.visualizer numMobilityVisualizers 1
par UseCase2.visualizer numStatisticVisualizers 1
par UseCase2.visualizer numInfoVisualizers 1
par UseCase2.visualizer numEnergyStorageVisualizers 1
par UseCase2.visualizer numMediumVisualizers 1
par UseCase2.visualizer numObstacleLossVisualizers 1
par UseCase2.visualizer numPacketDropVisualizers 1
par UseCase2.visualizer numQueueVisualizers 1
par UseCase2.visualizer numGateScheduleVisualizers 1
par UseCase2.visualizer numRadioVisualizers 1
par UseCase2.visualizer numPhysicalLinkVisualizers 1
par UseCase2.visualizer numInterfaceTableVisualizers 1
par UseCase2.visualizer numDataLinkVisualizers 1
par UseCase2.visualizer numLinkBreakVisualizers 1
par UseCase2.visualizer numIeee80211Visualizers 1
par UseCase2.visualizer numNetworkRouteVisualizers 1
par UseCase2.visualizer numRoutingTableVisualizers 1
par UseCase2.visualizer numTransportRouteVisualizers 1
par UseCase2.visualizer numTransportConnectionVisualizers 1
par UseCase2.visualizer numFailureProtectionConfigurationVisualizers 1
par UseCase2.visualizer numStreamRedundancyConfigurationVisualizers 1
par UseCase2.visualizer numChannelVisualizers 1
par UseCase2.configurator typename "\"inet.networklayer.configurator.ipv4.Ipv4NetworkConfigurator\""
par UseCase2.configurator minLinkWeight 0.001
par UseCase2.configurator configureIsolatedNetworksSeparatly false
par UseCase2.configurator config "<config>...</config> at content:1"
par UseCase2.configurator assignAddresses true
par UseCase2.configurator assignUniqueAddresses true
par UseCase2.configurator assignDisjunctSubnetAddresses true
par UseCase2.configurator addStaticRoutes true
par UseCase2.configurator addDefaultRoutes true
par UseCase2.configurator addSubnetRoutes true
par UseCase2.configurator addDirectRoutes true
par UseCase2.configurator optimizeRoutes true
par UseCase2.configurator updateRoutes false
par UseCase2.configurator dumpTopology false
par UseCase2.configurator dumpLinks false
par UseCase2.configurator dumpAddresses false
par UseCase2.configurator dumpRoutes false
par UseCase2.configurator dumpConfig "\"\""
par UseCase2.channelControl typename "\"simu5g.world.radio.LteChannelControl\""
par UseCase2.channelControl coreDebug false
par UseCase2.channelControl pMax 20mW
attr unit mW
par UseCase2.channelControl sat -110dBm
attr unit dBm
par UseCase2.channelControl alpha 2
par UseCase2.channelControl carrierFrequency 2.4e+09Hz
attr unit Hz
par UseCase2.channelControl numChannels 1
par UseCase2.channelControl propagationModel "\"FreeSpaceModel\""
attr enum FreeSpaceModel,TwoRayGroundModel,RiceModel,RayleighModel,NakagamiModel,LogNormalShadowingModel
par UseCase2.binder typename "\"src.common.binder.BinderTSN5G\""
par UseCase2.binder blerShift 5
par UseCase2.binder maxDataRatePerRb 1.16Mbps
attr unit Mbps
par UseCase2.binder printTrafficGeneratorConfig false
par UseCase2.carrierAggregation.componentCarrier[0] typename "\"simu5g.common.carrierAggregation.ComponentCarrier\""
par UseCase2.carrierAggregation.componentCarrier[0] carrierFrequency 2GHz
attr unit GHz
par UseCase2.carrierAggregation.componentCarrier[0] numBands 200
par UseCase2.carrierAggregation.componentCarrier[0] numerologyIndex 1
par UseCase2.carrierAggregation.componentCarrier[0] useTdd true
par UseCase2.carrierAggregation.componentCarrier[0] tddNumSymbolsDl 7
par UseCase2.carrierAggregation.componentCarrier[0] tddNumSymbolsUl 7
par UseCase2.carrierAggregation typename "\"simu5g.common.carrierAggregation.CarrierAggregation\""
par UseCase2.carrierAggregation numComponentCarriers 1
par UseCase2.upf.ethg$i[0].channel typename "\"ned.IdealChannel\""
par UseCase2.upf.eth[0].phys$o.channel typename "\"ned.IdealChannel\""
par UseCase2.upf.gtp_user.pppGate.channel typename "\"ned.IdealChannel\""
par UseCase2.upf.clock typename "\"inet.clock.model.IdealClock\""
par UseCase2.upf.clock displayStringTextFormat "\"%t\""
par UseCase2.upf.clock referenceClock "\"switchTSN.clock\""
par UseCase2.upf.clock emitClockTimeInterval 0s
attr unit s
par UseCase2.upf.interfaceTable typename "\"inet.networklayer.common.InterfaceTable\""
par UseCase2.upf.interfaceTable displayAddresses false
par UseCase2.upf.cb typename "\"inet.common.MessageDispatcher\""
par UseCase2.upf.cb displayStringTextFormat "\"processed %p pk (%l)\""
par UseCase2.upf.cb forwardServiceRegistration true
par UseCase2.upf.cb forwardProtocolRegistration true
par UseCase2.upf.bl typename "\"inet.common.MessageDispatcher\""
par UseCase2.upf.bl displayStringTextFormat "\"processed %p pk (%l)\""
par UseCase2.upf.bl forwardServiceRegistration true
par UseCase2.upf.bl forwardProtocolRegistration true
par UseCase2.upf.ethernet typename "\"inet.linklayer.ethernet.basic.EthernetEncapsulation\""
par UseCase2.upf.ethernet registerProtocol true
par UseCase2.upf.ethernet interfaceTableModule "\"UseCase2.upf.interfaceTable\""
par UseCase2.upf.ethernet fcsMode "\"declared\""
attr enum declared,computed
par UseCase2.upf.ethernet stopOperationExtraTime -1s
attr unit s
par UseCase2.upf.ethernet stopOperationTimeout 2s
attr unit s
scalar UseCase2.upf.ethernet pauseSent:count 0
attr recordingmode count
attr title "pause sent, count"
scalar UseCase2.upf.ethernet pauseSent:sum 0
attr recordingmode sum
attr title "pause sent, sum"
scalar UseCase2.upf.ethernet decapPk:count 3798
attr interpolationmode none
attr recordingmode count
attr source decapPk
attr title "packets decapsulated, count"
scalar UseCase2.upf.ethernet decapPk:sum(packetBytes) 467352
attr interpolationmode none
attr recordingmode sum(packetBytes)
attr source decapPk
attr title "packets decapsulated, sum(packetBytes)"
scalar UseCase2.upf.ethernet encapPk:count 3798
attr interpolationmode none
attr recordingmode count
attr source encapPk
attr title "packets encapsulated, count"
scalar UseCase2.upf.ethernet encapPk:sum(packetBytes) 467352
attr interpolationmode none
attr recordingmode sum(packetBytes)
attr source encapPk
attr title "packets encapsulated, sum(packetBytes)"
par UseCase2.upf.li typename "\"inet.common.MessageDispatcher\""
par UseCase2.upf.li displayStringTextFormat "\"processed %p pk (%l)\""
par UseCase2.upf.li forwardServiceRegistration true
par UseCase2.upf.li forwardProtocolRegistration true
par UseCase2.upf.lo[0].upperLayerIn.channel typename "\"ned.IdealChannel\""
par UseCase2.upf.lo[0].lo.upperLayerOut.channel typename "\"ned.IdealChannel\""
par UseCase2.upf.lo[0].lo typename "\"inet.linklayer.loopback.Loopback\""
par UseCase2.upf.lo[0].lo interfaceTableModule "\"UseCase2.upf.interfaceTable\""
par UseCase2.upf.lo[0].lo mtu 4470B
attr unit B
scalar UseCase2.upf.lo[0].lo rcvdPkFromHl:count 0
attr interpolationmode none
attr recordingmode count
attr source packetReceivedFromUpper
attr title "packets received from higher layer, count"
scalar UseCase2.upf.lo[0].lo rcvdPkFromHl:sum(packetBytes) 0
attr interpolationmode none
attr recordingmode sum(packetBytes)
attr source packetReceivedFromUpper
attr title "packets received from higher layer, sum(packetBytes)"
scalar UseCase2.upf.lo[0].lo passedUpPk:count 0
attr interpolationmode none
attr recordingmode count
attr source packetSentToUpper
attr title "packets passed to higher layer, count"
scalar UseCase2.upf.lo[0].lo passedUpPk:sum(packetBytes) 0
attr interpolationmode none
attr recordingmode sum(packetBytes)
attr source packetSentToUpper
attr title "packets passed to higher layer, sum(packetBytes)"
par UseCase2.upf.lo[0] typename "\"inet.linklayer.loopback.LoopbackInterface\""
par UseCase2.upf.lo[0] displayStringTextFormat "\"%a (%i)\\n%m\""
par UseCase2.upf.lo[0] recordPcap false
par UseCase2.upf.lo[0] numPcapRecorders 0
par UseCase2.upf.lo[0] interfaceTableModule "\"UseCase2.upf.interfaceTable\""
scalar UseCase2.upf.lo[0] packetDropInterfaceDown:count 0
attr interpolationmode none
attr recordingmode count
attr source packetDropReasonIsInterfaceDown(packetDropped)
attr title "packet drops: interface down, count"
scalar UseCase2.upf.lo[0] packetDropInterfaceDown:sum(packetBytes) 0
attr interpolationmode none
attr recordingmode sum(packetBytes)
attr source packetDropReasonIsInterfaceDown(packetDropped)
attr title "packet drops: interface down, sum(packetBytes)"
scalar UseCase2.upf.lo[0] packetDropNoCarrier:count 0
attr interpolationmode none
attr recordingmode count
attr source packetDropReasonIsNoCarrier(packetDropped)
attr title "packet drops: no carrier, count"
scalar UseCase2.upf.lo[0] packetDropNoCarrier:sum(packetBytes) 0
attr interpolationmode none
attr recordingmode sum(packetBytes)
attr source packetDropReasonIsNoCarrier(packetDropped)
attr title "packet drops: no carrier, sum(packetBytes)"
par UseCase2.upf.eth[0].mac.phys$o.channel typename "\"ned.IdealChannel\""
par UseCase2.upf.eth[0].phys$i.channel typename "\"ned.IdealChannel\""
par UseCase2.upf.eth[0].upperLayerIn.channel typename "\"ned.IdealChannel\""
par UseCase2.upf.eth[0].mac.upperLayerOut.channel typename "\"ned.IdealChannel\""
par UseCase2.upf.eth[0].queue typename "\"inet.linklayer.ethernet.common.EthernetQueue\""
par UseCase2.upf.eth[0].queue displayStringTextFormat "\"contains %p pk (%l) pushed %u\\npulled %o removed %r dropped %d\""
par UseCase2.upf.eth[0].queue packetCapacity 1000
par UseCase2.upf.eth[0].queue dataCapacity -1b
attr unit b
par UseCase2.upf.eth[0].queue dropperClass "\"inet::queueing::PacketAtCollectionEndDropper\""
par UseCase2.upf.eth[0].queue comparatorClass "\"inet::EthernetFrameTypeComparator\""
par UseCase2.upf.eth[0].queue bufferModule "\"\""
scalar UseCase2.upf.eth[0].queue queueLength:last 0
attr autoWarmupFilter false
attr interpolationmode sample-hold
attr recordingmode last
attr source "warmup(atomic(constant0(packetPushEnded) + count(packetPushStarted) - count(packetPulled) - count(packetRemoved) - count(packetDropped)))"
attr title "queue length, last"
attr unit pk
scalar UseCase2.upf.eth[0].queue queueLength:max 1
attr autoWarmupFilter false
attr interpolationmode sample-hold
attr recordingmode max
attr source "warmup(atomic(constant0(packetPushEnded) + count(packetPushStarted) - count(packetPulled) - count(packetRemoved) - count(packetDropped)))"
attr title "queue length, max"
attr unit pk
scalar UseCase2.upf.eth[0].queue queueLength:timeavg 4.5472e-07
attr autoWarmupFilter false
attr interpolationmode sample-hold
attr recordingmode timeavg
attr source "warmup(atomic(constant0(packetPushEnded) + count(packetPushStarted) - count(packetPulled) - count(packetRemoved) - count(packetDropped)))"
attr title "queue length, timeavg"
attr unit pk
scalar UseCase2.upf.eth[0].queue queueBitLength:last 0
attr autoWarmupFilter false
attr interpolationmode sample-hold
attr recordingmode last
attr source "warmup(atomic(constant0(packetPushEnded) + sum(packetLength(packetPushStarted)) - sum(packetLength(packetPulled)) - sum(packetLength(packetRemoved)) - sum(packetLength(packetDropped))))"
attr title "queue bit length, last"
attr unit b
scalar UseCase2.upf.eth[0].queue queueBitLength:max 1088
attr autoWarmupFilter false
attr interpolationmode sample-hold
attr recordingmode max
attr source "warmup(atomic(constant0(packetPushEnded) + sum(packetLength(packetPushStarted)) - sum(packetLength(packetPulled)) - sum(packetLength(packetRemoved)) - sum(packetLength(packetDropped))))"
attr title "queue bit length, max"
attr unit b
scalar UseCase2.upf.eth[0].queue queueBitLength:timeavg 0.00049473536
attr autoWarmupFilter false
attr interpolationmode sample-hold
attr recordingmode timeavg
attr source "warmup(atomic(constant0(packetPushEnded) + sum(packetLength(packetPushStarted)) - sum(packetLength(packetPulled)) - sum(packetLength(packetRemoved)) - sum(packetLength(packetDropped))))"
attr title "queue bit length, timeavg"
attr unit b
statistic UseCase2.upf.eth[0].queue queueingTime:histogram
field count 3798
field mean 2.394523433386e-08
field stddev 1.0266445161637e-07
field min 0
field max 4.64e-07
field sum 9.0944e-05
field sqrsum 4.2198016e-11
attr interpolationmode none
attr recordingmode histogram
attr source queueingTime(packetPulled)
attr title "queueing times"
attr unit s
bin	-inf	0
bin	0	3602
bin	1e-08	0
bin	2e-08	0
bin	3e-08	0
bin	4e-08	0
bin	5e-08	0
bin	6e-08	0
bin	7e-08	0
bin	8e-08	0
bin	9e-08	0
bin	1e-07	0
bin	1.1e-07	0
bin	1.2e-07	0
bin	1.3e-07	0
bin	1.4e-07	0
bin	1.5e-07	0
bin	1.6e-07	0
bin	1.7e-07	0
bin	1.8e-07	0
bin	1.9e-07	0
bin	2e-07	0
bin	2.1e-07	0
bin	2.2e-07	0
bin	2.3e-07	0
bin	2.4e-07	0
bin	2.5e-07	0
bin	2.6e-07	0
bin	2.7e-07	0
bin	2.8e-07	0
bin	2.9e-07	0
bin	3e-07	0
bin	3.1e-07	0
bin	3.2e-07	0
bin	3.3e-07	0
bin	3.4e-07	0
bin	3.5e-07	0
bin	3.6e-07	0
bin	3.7e-07	0
bin	3.8e-07	0
bin	3.9e-07	0
bin	4e-07	0
bin	4.1e-07	0
bin	4.2e-07	0
bin	4.3e-07	0
bin	4.4e-07	0
bin	4.5e-07	0
bin	4.6e-07	196
bin	4.7e-07	0
bin	4.8e-07	0
bin	4.9e-07	0
bin	5e-07	0
bin	5.1e-07	0
bin	5.2e-07	0
bin	5.3e-07	0
bin	5.4e-07	0
bin	5.5e-07	0
bin	5.6e-07	0
bin	5.7e-07	0
bin	5.8e-07	0
scalar UseCase2.upf.eth[0].queue outgoingPackets:count 3798
attr recordingmode count
attr source packetPulled
attr title "outgoing packets, count"
attr unit pk
scalar UseCase2.upf.eth[0].queue outgoingPacketLengths:sum 4285728
attr interpolationmode none
attr recordingmode sum
attr source packetLength(packetPulled)
attr title "outgoing packet lengths, sum"
attr unit b
statistic UseCase2.upf.eth[0].queue outgoingPacketLengths:histogram
field count 3798
field mean 1128.4170616114
field stddev 118.76819642065
field min 1008
field max 1264
field sum 4285728
field sqrsum 4889648640
attr interpolationmode none
attr recordingmode histogram
attr source packetLength(packetPulled)
attr title "outgoing packet lengths"
attr unit b
bin	-inf	0
bin	940	0
bin	945	0
bin	950	0
bin	955	0
bin	960	0
bin	965	0
bin	970	0
bin	975	0
bin	980	0
bin	985	0
bin	990	0
bin	995	0
bin	1000	0
bin	1005	1599
bin	1010	0
bin	1015	0
bin	1020	0
bin	1025	0
bin	1030	0
bin	1035	0
bin	1040	0
bin	1045	0
bin	1050	0
bin	1055	0
bin	1060	0
bin	1065	0
bin	1070	0
bin	1075	0
bin	1080	0
bin	1085	600
bin	1090	0
bin	1095	0
bin	1100	0
bin	1105	0
bin	1110	0
bin	1115	0
bin	1120	0
bin	1125	0
bin	1130	0
bin	1135	0
bin	1140	0
bin	1145	0
bin	1150	0
bin	1155	0
bin	1160	0
bin	1165	0
bin	1170	0
bin	1175	0
bin	1180	0
bin	1185	0
bin	1190	0
bin	1195	0
bin	1200	0
bin	1205	0
bin	1210	0
bin	1215	0
bin	1220	0
bin	1225	0
bin	1230	0
bin	1235	0
bin	1240	0
bin	1245	0
bin	1250	0
bin	1255	0
bin	1260	1599
bin	1265	0
bin	1270	0
bin	1275	0
bin	1280	0
bin	1285	0
bin	1290	0
bin	1295	0
bin	1300	0
bin	1305	0
bin	1310	0
bin	1315	0
bin	1320	0
bin	1325	0
bin	1330	0
statistic UseCase2.upf.eth[0].queue flowQueueingTime:histogram
field count 0
field mean -nan
field stddev nan
[...]
field count 1946
field mean 12406.264094092
field stddev 6616.1070234041
field min -354.40292225152
field max 26720
field sum 24142589.927103
field sqrsum 384657582873.3
attr interpolationmode linear
attr recordingmode histogram
attr source throughput(receptionEnded)
attr title throughput
attr unit bps
bin	-inf	0
bin	-5500	0
bin	-5000	0
bin	-4500	0
bin	-4000	0
bin	-3500	0
bin	-3000	0
bin	-2500	0
bin	-2000	0
bin	-1500	0
bin	-1000	0
bin	-500	1
bin	0	300
bin	500	0
bin	1000	0
bin	1500	0
bin	2000	0
bin	2500	0
bin	3000	0
bin	3500	0
bin	4000	0
bin	4500	0
bin	5000	0
bin	5500	44
bin	6000	0
bin	6500	0
bin	7000	0
bin	7500	0
bin	8000	89
bin	8500	0
bin	9000	0
bin	9500	0
bin	10000	0
bin	10500	0
bin	11000	0
bin	11500	0
bin	12000	0
bin	12500	0
bin	13000	0
bin	13500	1317
bin	14000	1
bin	14500	0
bin	15000	0
bin	15500	0
bin	16000	0
bin	16500	0
bin	17000	0
bin	17500	0
bin	18000	0
bin	18500	45
bin	19000	0
bin	19500	0
bin	20000	0
bin	20500	0
bin	21000	0
bin	21500	0
bin	22000	0
bin	22500	0
bin	23000	0
bin	23500	0
bin	24000	0
bin	24500	0
bin	25000	0
bin	25500	0
bin	26000	0
bin	26500	149
bin	27000	0
statistic UseCase2.Actuator2.eth[0].phyLayer.receiver receptionTime:histogram
field count 3600
field mean 6.8974666666665e-07
field stddev 1.1448459828892e-07
field min 5.76e-07
field max 8.16e-07
field sum 0.0024830879999999
field sqrsum 1.759872768e-09
attr interpolationmode none
attr recordingmode histogram
attr source packetDuration(receptionEnded)
attr title "reception time"
attr unit s
bin	-inf	0
bin	5.15e-07	0
bin	5.2e-07	0
bin	5.25e-07	0
bin	5.3e-07	0
bin	5.35e-07	0
bin	5.4e-07	0
bin	5.45e-07	0
bin	5.5e-07	0
bin	5.55e-07	0
bin	5.6e-07	0
bin	5.65e-07	0
bin	5.7e-07	0
bin	5.75e-07	1599
bin	5.8e-07	0
bin	5.85e-07	0
bin	5.9e-07	0
bin	5.95e-07	0
bin	6e-07	0
bin	6.05e-07	0
bin	6.1e-07	0
bin	6.15e-07	0
bin	6.2e-07	0
bin	6.25e-07	0
bin	6.3e-07	0
bin	6.35e-07	402
bin	6.4e-07	0
bin	6.45e-07	0
bin	6.5e-07	0
bin	6.55e-07	0
bin	6.6e-07	0
bin	6.65e-07	0
bin	6.7e-07	0
bin	6.75e-07	0
bin	6.8e-07	0
bin	6.85e-07	0
bin	6.9e-07	0
bin	6.95e-07	0
bin	7e-07	0
bin	7.05e-07	0
bin	7.1e-07	0
bin	7.15e-07	0
bin	7.2e-07	0
bin	7.25e-07	0
bin	7.3e-07	0
bin	7.35e-07	0
bin	7.4e-07	0
bin	7.45e-07	0
bin	7.5e-07	0
bin	7.55e-07	0
bin	7.6e-07	0
bin	7.65e-07	0
bin	7.7e-07	0
bin	7.75e-07	0
bin	7.8e-07	0
bin	7.85e-07	0
bin	7.9e-07	0
bin	7.95e-07	0
bin	8e-07	0
bin	8.05e-07	0
bin	8.1e-07	0
bin	8.15e-07	1599
bin	8.2e-07	0
bin	8.25e-07	0
bin	8.3e-07	0
bin	8.35e-07	0
bin	8.4e-07	0
bin	8.45e-07	0
bin	8.5e-07	0
bin	8.55e-07	0
bin	8.6e-07	0
bin	8.65e-07	0
bin	8.7e-07	0
bin	8.75e-07	0
bin	8.8e-07	0
statistic UseCase2.Actuator2.eth[0].phyLayer.receiver flowReceptionTime:histogram
field count 0
field mean -nan
field stddev nan
field min nan
field max nan
field sum 0
field sqrsum 0
attr interpolationmode none
attr recordingmode histogram
attr source packetDuration(demuxFlow(receptionEnded))
attr title "flow reception time"
attr unit s
bin	-inf	0
bin	0	0
bin	1	0
par UseCase2.Actuator2.eth[0].phyLayer typename "\"inet.physicallayer.wired.ethernet.EthernetPhyLayer\""
par UseCase2.Actuator2.eth[0].phyLayer bitrate this.bitrate
attr unit bps
par UseCase2.Actuator2.eth[0] typename "\"inet.linklayer.ethernet.modular.LayeredEthernetInterface\""
par UseCase2.Actuator2.eth[0] displayStringTextFormat "\"%a (%i)\\n%m\""
par UseCase2.Actuator2.eth[0] recordPcap false
par UseCase2.Actuator2.eth[0] numPcapRecorders 0
par UseCase2.Actuator2.eth[0] protocol "\"ethernetmac\""
par UseCase2.Actuator2.eth[0] broadcast true
par UseCase2.Actuator2.eth[0] multicast true
par UseCase2.Actuator2.eth[0] address "\"0A-AA-00-00-00-19\""
attr mutable ""
par UseCase2.Actuator2.eth[0] bitrate 1e+09bps
attr unit bps
par UseCase2.Actuator2.eth[0] mtu 1500B
attr unit B
par UseCase2.Actuator2.eth[0] interfaceTableModule "\"UseCase2.Actuator2.interfaceTable\""
scalar UseCase2.Actuator2.eth[0] packetDropInterfaceDown:count 0
attr interpolationmode none
attr recordingmode count
attr source packetDropReasonIsInterfaceDown(packetDropped)
attr title "packet drops: interface down, count"
scalar UseCase2.Actuator2.eth[0] packetDropInterfaceDown:sum(packetBytes) 0
attr interpolationmode none
attr recordingmode sum(packetBytes)
attr source packetDropReasonIsInterfaceDown(packetDropped)
attr title "packet drops: interface down, sum(packetBytes)"
scalar UseCase2.Actuator2.eth[0] packetDropNoCarrier:count 0
attr interpolationmode none
attr recordingmode count
attr source packetDropReasonIsNoCarrier(packetDropped)
attr title "packet drops: no carrier, count"
scalar UseCase2.Actuator2.eth[0] packetDropNoCarrier:sum(packetBytes) 0
attr interpolationmode none
attr recordingmode sum(packetBytes)
attr source packetDropReasonIsNoCarrier(packetDropped)
attr title "packet drops: no carrier, sum(packetBytes)"
par UseCase2.Actuator2.ipv4.transportIn.channel typename "\"ned.IdealChannel\""
par UseCase2.Actuator2.ipv4.up.out[0].channel typename "\"ned.IdealChannel\""
par UseCase2.Actuator2.ipv4.lp.out[2].channel typename "\"ned.IdealChannel\""
par UseCase2.Actuator2.ipv4.ifIn.channel typename "\"ned.IdealChannel\""
par UseCase2.Actuator2.ipv4.configurator typename "\"inet.networklayer.configurator.ipv4.Ipv4NodeConfigurator\""
par UseCase2.Actuator2.ipv4.configurator interfaceTableModule "\"UseCase2.Actuator2.interfaceTable\""
par UseCase2.Actuator2.ipv4.configurator routingTableModule "\"UseCase2.Actuator2.ipv4.routingTable\""
par UseCase2.Actuator2.ipv4.configurator networkConfiguratorModule "\"configurator\""
par UseCase2.Actuator2.ipv4.configurator configureRoutingTable true
par UseCase2.Actuator2.ipv4.routingTable typename "\"inet.networklayer.ipv4.Ipv4RoutingTable\""
par UseCase2.Actuator2.ipv4.routingTable interfaceTableModule "\"UseCase2.Actuator2.interfaceTable\""
par UseCase2.Actuator2.ipv4.routingTable routerId "\"auto\""
par UseCase2.Actuator2.ipv4.routingTable netmaskRoutes "\"*\""
par UseCase2.Actuator2.ipv4.routingTable forwarding false
par UseCase2.Actuator2.ipv4.routingTable multicastForwarding false
par UseCase2.Actuator2.ipv4.routingTable useAdminDist false
par UseCase2.Actuator2.ipv4.routingTable routingFile "\"\""
par UseCase2.Actuator2.ipv4.natTable typename "\"inet.networklayer.ipv4.Ipv4NatTable\""
par UseCase2.Actuator2.ipv4.natTable networkProtocolModule "\"^.ip\""
par UseCase2.Actuator2.ipv4.natTable config "<config/> at content:1"
par UseCase2.Actuator2.ipv4.up typename "\"inet.common.MessageDispatcher\""
par UseCase2.Actuator2.ipv4.up displayStringTextFormat "\"processed %p pk (%l)\""
par UseCase2.Actuator2.ipv4.up forwardServiceRegistration true
par UseCase2.Actuator2.ipv4.up forwardProtocolRegistration true
par UseCase2.Actuator2.ipv4.igmp typename "\"inet.networklayer.ipv4.Igmpv2\""
par UseCase2.Actuator2.ipv4.igmp interfaceTableModule "\"UseCase2.Actuator2.interfaceTable\""
par UseCase2.Actuator2.ipv4.igmp routingTableModule "\"UseCase2.Actuator2.ipv4.routingTable\""
par UseCase2.Actuator2.ipv4.igmp crcMode "\"declared\""
attr enum declared,computed
par UseCase2.Actuator2.ipv4.igmp enabled true
par UseCase2.Actuator2.ipv4.igmp robustnessVariable 2
par UseCase2.Actuator2.ipv4.igmp queryInterval 125s
attr unit s
par UseCase2.Actuator2.ipv4.igmp queryResponseInterval 10s
attr unit s
par UseCase2.Actuator2.ipv4.igmp groupMembershipInterval 260s
attr unit s
par UseCase2.Actuator2.ipv4.igmp otherQuerierPresentInterval 255s
attr unit s
par UseCase2.Actuator2.ipv4.igmp startupQueryInterval 31.25s
attr unit s
par UseCase2.Actuator2.ipv4.igmp startupQueryCount 2
par UseCase2.Actuator2.ipv4.igmp lastMemberQueryInterval 1s
attr unit s
par UseCase2.Actuator2.ipv4.igmp lastMemberQueryCount 2
par UseCase2.Actuator2.ipv4.igmp unsolicitedReportInterval 10s
attr unit s
par UseCase2.Actuator2.ipv4.icmp typename "\"inet.networklayer.ipv4.Icmp\""
par UseCase2.Actuator2.ipv4.icmp interfaceTableModule "\"UseCase2.Actuator2.interfaceTable\""
par UseCase2.Actuator2.ipv4.icmp routingTableModule "\"UseCase2.Actuator2.ipv4.routingTable\""
par UseCase2.Actuator2.ipv4.icmp crcMode "\"declared\""
attr enum declared,computed
attr mutable ""
par UseCase2.Actuator2.ipv4.icmp quoteLength 8B
attr mutable ""
attr unit B
par UseCase2.Actuator2.ipv4.mp typename "\"inet.common.MessageDispatcher\""
par UseCase2.Actuator2.ipv4.mp displayStringTextFormat "\"processed %p pk (%l)\""
par UseCase2.Actuator2.ipv4.mp forwardServiceRegistration true
par UseCase2.Actuator2.ipv4.mp forwardProtocolRegistration true
par UseCase2.Actuator2.ipv4.ip typename "\"inet.networklayer.ipv4.Ipv4\""
par UseCase2.Actuator2.ipv4.ip interfaceTableModule "\"UseCase2.Actuator2.interfaceTable\""
par UseCase2.Actuator2.ipv4.ip routingTableModule "\"UseCase2.Actuator2.ipv4.routingTable\""
par UseCase2.Actuator2.ipv4.ip arpModule "\"UseCase2.Actuator2.ipv4.arp\""
par UseCase2.Actuator2.ipv4.ip icmpModule "\"UseCase2.Actuator2.ipv4.icmp\""
par UseCase2.Actuator2.ipv4.ip crcMode "\"declared\""
attr enum declared,computed
par UseCase2.Actuator2.ipv4.ip timeToLive 32
par UseCase2.Actuator2.ipv4.ip multicastTimeToLive 32
par UseCase2.Actuator2.ipv4.ip fragmentTimeout 60s
attr unit s
par UseCase2.Actuator2.ipv4.ip limitedBroadcast false
par UseCase2.Actuator2.ipv4.ip directBroadcastInterfaces "\"\""
par UseCase2.Actuator2.ipv4.ip enableLocalOutMulticastRouting false
par UseCase2.Actuator2.ipv4.ip enableTimestampOption false
par UseCase2.Actuator2.ipv4.ip maxLifetime -1s
attr unit s
scalar UseCase2.Actuator2.ipv4.ip packetDropAddressResolutionFailed:count 0
attr interpolationmode none
attr recordingmode count
attr source packetDropReasonIsAddressResolutionFailed(packetDropped)
attr title "packet drop: address resolution failed, count"
scalar UseCase2.Actuator2.ipv4.ip packetDropAddressResolutionFailed:sum(packetBytes) 0
attr interpolationmode none
attr recordingmode sum(packetBytes)
attr source packetDropReasonIsAddressResolutionFailed(packetDropped)
attr title "packet drop: address resolution failed, sum(packetBytes)"
scalar UseCase2.Actuator2.ipv4.ip packetDropHopLimitReached:count 0
attr interpolationmode none
attr recordingmode count
attr source packetDropReasonIsHopLimitReached(packetDropped)
attr title "packet drop: hop limit reached, count"
scalar UseCase2.Actuator2.ipv4.ip packetDropHopLimitReached:sum(packetBytes) 0
attr interpolationmode none
attr recordingmode sum(packetBytes)
attr source packetDropReasonIsHopLimitReached(packetDropped)
attr title "packet drop: hop limit reached, sum(packetBytes)"
scalar UseCase2.Actuator2.ipv4.ip packetDropForwardingDisabled:count 0
attr interpolationmode none
attr recordingmode count
attr source packetDropReasonIsForwardingDisabled(packetDropped)
attr title "packet drop: forwarding disabled, count"
scalar UseCase2.Actuator2.ipv4.ip packetDropForwardingDisabled:sum(packetBytes) 0
attr interpolationmode none
attr recordingmode sum(packetBytes)
attr source packetDropReasonIsForwardingDisabled(packetDropped)
attr title "packet drop: forwarding disabled, sum(packetBytes)"
scalar UseCase2.Actuator2.ipv4.ip packetDropLifetimeExpired:count 0
attr interpolationmode none
attr recordingmode count
attr source packetDropReasonIsLifetimeExpired(packetDropped)
attr title "packet drop: lifetime expired, count"
scalar UseCase2.Actuator2.ipv4.ip packetDropLifetimeExpired:sum(packetBytes) 0
attr interpolationmode none
attr recordingmode sum(packetBytes)
attr source packetDropReasonIsLifetimeExpired(packetDropped)
attr title "packet drop: lifetime expired, sum(packetBytes)"
scalar UseCase2.Actuator2.ipv4.ip packetDropNoInterfaceFound:count 0
attr interpolationmode none
attr recordingmode count
attr source packetDropReasonIsNoInterfaceFound(packetDropped)
attr title "packet drop: no interface found, count"
scalar UseCase2.Actuator2.ipv4.ip packetDropNoInterfaceFound:sum(packetBytes) 0
attr interpolationmode none
attr recordingmode sum(packetBytes)
attr source packetDropReasonIsNoInterfaceFound(packetDropped)
attr title "packet drop: no interface found, sum(packetBytes)"
scalar UseCase2.Actuator2.ipv4.ip packetDropNoRouteFound:count 0
attr interpolationmode none
attr recordingmode count
attr source packetDropReasonIsNoRouteFound(packetDropped)
attr title "packet drop: no route found, count"
scalar UseCase2.Actuator2.ipv4.ip packetDropNoRouteFound:sum(packetBytes) 0
attr interpolationmode none
attr recordingmode sum(packetBytes)
attr source packetDropReasonIsNoRouteFound(packetDropped)
attr title "packet drop: no route found, sum(packetBytes)"
scalar UseCase2.Actuator2.ipv4.ip packetDropUndefined:count 0
attr interpolationmode none
attr recordingmode count
attr source packetDropReasonIsUndefined(packetDropped)
attr title "packet drop: undefined, count"
scalar UseCase2.Actuator2.ipv4.ip packetDropUndefined:sum(packetBytes) 0
attr interpolationmode none
attr recordingmode sum(packetBytes)
attr source packetDropReasonIsUndefined(packetDropped)
attr title "packet drop: undefined, sum(packetBytes)"
par UseCase2.Actuator2.ipv4.arp typename "\"inet.networklayer.arp.ipv4.GlobalArp\""
par UseCase2.Actuator2.ipv4.arp interfaceTableModule "\"UseCase2.Actuator2.interfaceTable\""
par UseCase2.Actuator2.ipv4.arp addressType "\"ipv4\""
attr enum ipv4,ipv6,mac,moduleid,modulepath
par UseCase2.Actuator2.ipv4.lp typename "\"inet.common.MessageDispatcher\""
par UseCase2.Actuator2.ipv4.lp displayStringTextFormat "\"processed %p pk (%l)\""
par UseCase2.Actuator2.ipv4.lp forwardServiceRegistration true
par UseCase2.Actuator2.ipv4.lp forwardProtocolRegistration true
par UseCase2.Actuator2.ipv4 typename "\"inet.networklayer.ipv4.Ipv4NetworkLayer\""
par UseCase2.Actuator2.ipv4 forwarding false
par UseCase2.Actuator2.ipv4 multicastForwarding false
par UseCase2.Actuator2.ipv4 hasIpsec false
par UseCase2.Actuator2.ipv4 interfaceTableModule "\"UseCase2.Actuator2.interfaceTable\""
par UseCase2.Actuator2.ipv4 displayStringTextFormat "\"%i\""
par UseCase2.Actuator2.nl typename "\"inet.common.MessageDispatcher\""
par UseCase2.Actuator2.nl displayStringTextFormat "\"processed %p pk (%l)\""
par UseCase2.Actuator2.nl forwardServiceRegistration true
par UseCase2.Actuator2.nl forwardProtocolRegistration true
par UseCase2.Actuator2.udp typename "\"inet.transportlayer.udp.Udp\""
par UseCase2.Actuator2.udp interfaceTableModule "\"UseCase2.Actuator2.interfaceTable\""
par UseCase2.Actuator2.udp icmpModule "\"^.ipv4.icmp\""
par UseCase2.Actuator2.udp icmpv6Module "\"^.ipv6.icmpv6\""
par UseCase2.Actuator2.udp crcMode "\"declared\""
attr enum disabled,declared,computed
par UseCase2.Actuator2.udp defaultMulticastLoop true
scalar UseCase2.Actuator2.udp packetReceived:count 0
attr interpolationmode none
attr recordingmode count
attr source packetReceived
attr title "packets received, count"
scalar UseCase2.Actuator2.udp packetReceived:sum(packetBytes) 0
attr interpolationmode none
attr recordingmode sum(packetBytes)
attr source packetReceived
attr title "packets received, sum(packetBytes)"
scalar UseCase2.Actuator2.udp packetSent:count 0
attr interpolationmode none
attr recordingmode count
attr source packetSent
attr title "packets sent, count"
scalar UseCase2.Actuator2.udp packetSent:sum(packetBytes) 0
attr interpolationmode none
attr recordingmode sum(packetBytes)
attr source packetSent
attr title "packets sent, sum(packetBytes)"
scalar UseCase2.Actuator2.udp passedUpPk:count 0
attr interpolationmode none
attr recordingmode count
attr source packetSentToUpper
attr title "packets passed up, count"
scalar UseCase2.Actuator2.udp droppedPkWrongPort:count 0
attr interpolationmode none
attr recordingmode count
attr source packetDropReasonIsNoPortFound(packetDropped)
attr title "packets dropped (wrong port), count"
scalar UseCase2.Actuator2.udp droppedPkBadChecksum:count 0
attr interpolationmode none
attr recordingmode count
attr source packetDropReasonIsIncorrectlyReceived(packetDropped)
attr title "packets dropped (checksum error), count"
par UseCase2.Actuator2.tcp typename "\"inet.transportlayer.tcp.Tcp\""
par UseCase2.Actuator2.tcp crcMode "\"declared\""
attr enum declared,computed
par UseCase2.Actuator2.tcp advertisedWindow 7504
par UseCase2.Actuator2.tcp delayedAcksEnabled false
par UseCase2.Actuator2.tcp nagleEnabled true
par UseCase2.Actuator2.tcp limitedTransmitEnabled false
par UseCase2.Actuator2.tcp increasedIWEnabled false
par UseCase2.Actuator2.tcp sackSupport false
par UseCase2.Actuator2.tcp windowScalingSupport false
par UseCase2.Actuator2.tcp windowScalingFactor -1
par UseCase2.Actuator2.tcp timestampSupport false
par UseCase2.Actuator2.tcp mss 536
par UseCase2.Actuator2.tcp msl 120s
attr unit s
par UseCase2.Actuator2.tcp tcpAlgorithmClass "\"TcpReno\""
attr enum TcpVegas,TcpWestwood,DcTcp,TcpNewReno,TcpReno,TcpTahoe,TcpNoCongestionControl
par UseCase2.Actuator2.tcp dupthresh 3
par UseCase2.Actuator2.tcp initialSsthresh 4294967295
par UseCase2.Actuator2.tcp stopOperationExtraTime 0s
attr unit s
par UseCase2.Actuator2.tcp stopOperationTimeout 2s
attr unit s
par UseCase2.Actuator2.tcp ecnWillingness false
par UseCase2.Actuator2.tcp dctcpGamma 0.0625
par UseCase2.Actuator2.tn typename "\"inet.common.MessageDispatcher\""
par UseCase2.Actuator2.tn displayStringTextFormat "\"processed %p pk (%l)\""
par UseCase2.Actuator2.tn forwardServiceRegistration true
par UseCase2.Actuator2.tn forwardProtocolRegistration true
par UseCase2.Actuator2.at typename "\"inet.common.MessageDispatcher\""
par UseCase2.Actuator2.at displayStringTextFormat "\"processed %p pk (%l)\""
par UseCase2.Actuator2.at forwardServiceRegistration true
par UseCase2.Actuator2.at forwardProtocolRegistration true
par UseCase2.Actuator2.gptp typename "\"inet.linklayer.ieee8021as.Gptp\""
par UseCase2.Actuator2.gptp clockModule "\"UseCase2.Actuator2.clock\""
par UseCase2.Actuator2.gptp interfaceTableModule "\"UseCase2.Actuator2.interfaceTable\""
par UseCase2.Actuator2.gptp gptpNodeType "\"SLAVE_NODE\""
par UseCase2.Actuator2.gptp domainNumber 0
par UseCase2.Actuator2.gptp slavePort "\"eth0\""
par UseCase2.Actuator2.gptp masterPorts []
par UseCase2.Actuator2.gptp correctionField 0s
attr unit s
par UseCase2.Actuator2.gptp syncInterval 0.125s
attr unit s
par UseCase2.Actuator2.gptp pdelayInterval 1s
attr unit s
par UseCase2.Actuator2.gptp syncInitialOffset 0.125s
attr unit s
par UseCase2.Actuator2.gptp pdelayInitialOffset 0s
attr unit s
par UseCase2.Actuator2.gptp pDelayReqProcessingTime 8e-06s
attr unit s
par UseCase2.Actuator2.gptp followUpInterval 7e-06s
attr unit s
par UseCase2.Actuator2 typename "\"inet.node.tsn.TsnDevice\""
par UseCase2.Actuator2 hasStatus false
par UseCase2.Actuator2 osgModel "\"\""
par UseCase2.Actuator2 osgModelColor "\"\""
par UseCase2.Actuator2 canvasImage "\"\""
par UseCase2.Actuator2 canvasImageColor "\"\""
par UseCase2.Actuator2 recordPcap false
par UseCase2.Actuator2 numPcapRecorders 0
par UseCase2.Actuator2 numLoInterfaces 1
par UseCase2.Actuator2 numWlanInterfaces 0
par UseCase2.Actuator2 numEthInterfaces 0
par UseCase2.Actuator2 numPppInterfaces 0
par UseCase2.Actuator2 numTunInterfaces 0
par UseCase2.Actuator2 numVirtInterfaces 0
par UseCase2.Actuator2 fcsMode "\"declared\""
attr enum declared,computed
par UseCase2.Actuator2 hasIpv4 true
par UseCase2.Actuator2 hasIpv6 false
par UseCase2.Actuator2 hasGn false
par UseCase2.Actuator2 forwarding false
par UseCase2.Actuator2 multicastForwarding false
par UseCase2.Actuator2 hasUdp true
par UseCase2.Actuator2 hasTcp true
par UseCase2.Actuator2 hasSctp false
par UseCase2.Actuator2 numApps 0
par UseCase2.Actuator2 hasTimeSynchronization true
par UseCase2.Actuator2 hasIngressTrafficFiltering false
par UseCase2.Actuator2 hasEgressTrafficFiltering false
par UseCase2.Actuator2 hasEgressTrafficShaping false
par UseCase2.Actuator2 hasStreamRedundancy false
par UseCase2.Actuator2 hasIncomingStreams false
par UseCase2.Actuator2 hasOutgoingStreams false
par UseCase2.Actuator2 hasFramePreemption false
par UseCase2.Actuator2 hasCutthroughSwitching false
par UseCase2 typename "\"simulation.UseCase2\""
par UseCase2 recordPcap false
par UseCase2 numPcapRecorders 0
par UseCase2 hasGlobalArp true

