file 6436128 1712879509                                         
version 3
run UE-UE-Synchronization-0-20240411-20:51:09-86254
attr configname UE-UE-Synchronization
attr datetime 20240411-20:51:09
attr datetimef 20240411-205109
attr experiment UE-UE-Synchronization
attr inifile omnetpp.ini
attr iterationvars $u=1
attr iterationvarsd u=1
attr iterationvarsf u=1-
attr measurement $u=1
attr network UseCase2
attr processid 86254
attr repetition 0
attr replication #0
attr resultdir results
attr runnumber 0
attr seedset 0
itervar u 1
config image-path ../../inet/images:../../Simu5G/images
config extends timeSynchronization
config *.DSTT2.clock.typename IdealClock
config *.switch5GC.hasTimeSynchronization false
config *.PLC.hasTimeSynchronization false
config **.hasTimeSynchronization true
config network UseCase2
config *.ue2.macCellId 0
config *.ue2.masterId 0
config *.ue2.nrMacCellId 1
config *.ue2.nrMasterId 1
config *.ue2.intHostAddress "\"Actuator2 DSTT2\""
config **.referenceClock "\"switchTSN.clock\""
config *.switchTSN.clock.oscillator.driftRate 10ppm
config **.oscillator.driftRate "uniform(10ppm, 100ppm)"
config *.switchTSN.gptp.gptpNodeType "\"MASTER_NODE\""
config *.switchTSN.gptp.masterPorts "[\"eth0\",\"eth1\",\"eth2\"]"
config *.switchTSN.gptp.slavePort "\"\""
config *.switchTSN2.gptp.masterPorts "[\"eth1\"]"
config *.switchTSN2.gptp.slavePort "\"eth0\""
config *.NSTT.gptp.TSNPort "\"eth1\""
config *.NSTT.gptp.fiveGPort "\"eth0\""
config *.DSTT.gptp.TSNPort "\"eth1\""
config *.DSTT.gptp.fiveGPort "\"eth0\""
config *.DSTT.gptp.masterDomains [0]
config *.DSTT2.gptp.TSNPort "\"eth1\""
config *.DSTT2.gptp.fiveGPort "\"eth0\""
config *.DSTT2.gptp.slaveDomains [0]
config *.switch5GC.clock.displayStringTextFormat "\"diff: %d\""
config *.switchTSN2.clock.displayStringTextFormat "\"diff: %d\""
config *.switchTSN.clock.displayStringTextFormat "\"time: %T\""
config *.upf.clock.typename IdealClock
config *.*TT.clock.typename IdealClock
config **.clock.oscillator.typename ConstantDriftOscillator
config *.*TT.gptp.typename Gptp5g
config *.*TT.gptp.fiveGPort "\"eth0\""
config network UseCase
config sim-time-limit 200s
config **.eth*.bitrate 1Gbps
config **.mobility.typename ""
config *.ue.macCellId 0
config *.ue.masterId 0
config *.ue.nrMacCellId 1
config *.ue.nrMasterId 1
config *.ue.intHostAddress "\"Sensor Actuator DSTT\""
config **.amcType "\"NRAmc\""
config **.targetBler 0.001
config **.blerShift 5
config **.numerologyIndex 1
config **.useTdd true
config **.numBands 200
config *.NSTT.**.translatorType "\"NS_TT\""

vector 0 UseCase2.upf.clock timeChanged:vector ETV
attr interpolationmode linear
attr recordingmode vector
attr title "Clock time"
vector 1 UseCase2.upf.eth[0].queue queueLength:vector ETV
attr autoWarmupFilter false
attr interpolationmode sample-hold
attr recordingmode vector
attr source "warmup(atomic(constant0(packetPushEnded) + count(packetPushStarted) - count(packetPulled) - count(packetRemoved) - count(packetDropped)))"
attr title "queue length"
attr unit pk
vector 2 UseCase2.upf.eth[0].queue queueBitLength:vector ETV
attr autoWarmupFilter false
attr interpolationmode sample-hold
attr recordingmode vector
attr source "warmup(atomic(constant0(packetPushEnded) + sum(packetLength(packetPushStarted)) - sum(packetLength(packetPulled)) - sum(packetLength(packetRemoved)) - sum(packetLength(packetDropped))))"
attr title "queue bit length"
attr unit b
vector 3 UseCase2.upf.eth[0].mac transmitting:vector ETV
attr interpolationmode sample-hold
attr recordingmode vector
attr source "count(transmissionStarted) - count(transmissionEnded)"
attr title "transmitting state"
attr type int
vector 4 UseCase2.upf.ethIf.macLayer.queue queueLength:vector ETV
attr autoWarmupFilter false
attr interpolationmode sample-hold
attr recordingmode vector
attr source "warmup(atomic(constant0(packetPushEnded) + count(packetPushStarted) - count(packetPulled) - count(packetRemoved) - count(packetDropped)))"
attr title "queue length"
attr unit pk
vector 5 UseCase2.upf.ethIf.macLayer.queue queueBitLength:vector ETV
attr autoWarmupFilter false
attr interpolationmode sample-hold
attr recordingmode vector
attr source "warmup(atomic(constant0(packetPushEnded) + sum(packetLength(packetPushStarted)) - sum(packetLength(packetPulled)) - sum(packetLength(packetRemoved)) - sum(packetLength(packetDropped))))"
attr title "queue bit length"
attr unit b
vector 6 UseCase2.upf.ethIf.phyLayer.interFrameGapInserter interpacketGap:vector ETV
attr interpolationmode sample-hold
attr recordingmode vector
attr source "count(interpacketGapStarted) - count(interpacketGapEnded)"
attr title "interpacket gap state"
attr type int
vector 7 UseCase2.upf.ethIf.phyLayer.transmitter transmitting:vector ETV
attr interpolationmode sample-hold
attr recordingmode vector
attr source "count(transmissionStarted) - count(transmissionEnded)"
attr title "transmitting state"
attr type int
vector 8 UseCase2.upf.udp passedUpPk:vector(count) ETV
attr interpolationmode none
attr recordingmode vector(count)
attr source packetSentToUpper
attr title "packets passed up, count"
vector 9 UseCase2.upf.udp droppedPkWrongPort:vector(count) ETV
attr interpolationmode none
attr recordingmode vector(count)
attr source packetDropReasonIsNoPortFound(packetDropped)
attr title "packets dropped (wrong port), count"
vector 10 UseCase2.upf.udp droppedPkBadChecksum:vector(count) ETV
attr interpolationmode none
attr recordingmode vector(count)
attr source packetDropReasonIsIncorrectlyReceived(packetDropped)
attr title "packets dropped (checksum error), count"
vector 11 UseCase2.gNB.pppIf.queue queueLength:vector ETV
attr autoWarmupFilter false
attr interpolationmode sample-hold
attr recordingmode vector
attr source "warmup(atomic(constant0(packetPushEnded) + count(packetPushStarted) - count(packetPulled) - count(packetRemoved) - count(packetDropped)))"
attr title "queue length"
attr unit pk
vector 12 UseCase2.gNB.pppIf.queue queueBitLength:vector ETV
attr autoWarmupFilter false
attr interpolationmode sample-hold
attr recordingmode vector
attr source "warmup(atomic(constant0(packetPushEnded) + sum(packetLength(packetPushStarted)) - sum(packetLength(packetPulled)) - sum(packetLength(packetRemoved)) - sum(packetLength(packetDropped))))"
attr title "queue bit length"
attr unit b
vector 13 UseCase2.gNB.pppIf.ppp transmissionState:vector ETV
attr interpolationmode sample-hold
attr recordingmode vector
attr source transmissionStateChanged
attr title "tx state"
vector 14 UseCase2.gNB.pppMEHostIf.queue queueLength:vector ETV
attr autoWarmupFilter false
attr interpolationmode sample-hold
attr recordingmode vector
attr source "warmup(atomic(constant0(packetPushEnded) + count(packetPushStarted) - count(packetPulled) - count(packetRemoved) - count(packetDropped)))"
attr title "queue length"
attr unit pk
vector 15 UseCase2.gNB.pppMEHostIf.queue queueBitLength:vector ETV
attr autoWarmupFilter false
attr interpolationmode sample-hold
attr recordingmode vector
attr source "warmup(atomic(constant0(packetPushEnded) + sum(packetLength(packetPushStarted)) - sum(packetLength(packetPulled)) - sum(packetLength(packetRemoved)) - sum(packetLength(packetDropped))))"
attr title "queue bit length"
attr unit b
vector 16 UseCase2.gNB.pppMEHostIf.ppp transmissionState:vector ETV
attr interpolationmode sample-hold
attr recordingmode vector
attr source transmissionStateChanged
attr title "tx state"
vector 17 UseCase2.gNB.udp passedUpPk:vector(count) ETV
attr interpolationmode none
attr recordingmode vector(count)
attr source packetSentToUpper
attr title "packets passed up, count"
vector 18 UseCase2.gNB.udp droppedPkWrongPort:vector(count) ETV
attr interpolationmode none
attr recordingmode vector(count)
attr source packetDropReasonIsNoPortFound(packetDropped)
attr title "packets dropped (wrong port), count"
vector 19 UseCase2.gNB.udp droppedPkBadChecksum:vector(count) ETV
attr interpolationmode none
attr recordingmode vector(count)
attr source packetDropReasonIsIncorrectlyReceived(packetDropped)
attr title "packets dropped (checksum error), count"
vector 20 UseCase2.gNB.eth.macLayer.queue queueLength:vector ETV
attr autoWarmupFilter false
attr interpolationmode sample-hold
attr recordingmode vector
attr source "warmup(atomic(constant0(packetPushEnded) + count(packetPushStarted) - count(packetPulled) - count(packetRemoved) - count(packetDropped)))"
attr title "queue length"
attr unit pk
vector 21 UseCase2.gNB.eth.macLayer.queue queueBitLength:vector ETV
attr autoWarmupFilter false
attr interpolationmode sample-hold
attr recordingmode vector
attr source "warmup(atomic(constant0(packetPushEnded) + sum(packetLength(packetPushStarted)) - sum(packetLength(packetPulled)) - sum(packetLength(packetRemoved)) - sum(packetLength(packetDropped))))"
attr title "queue bit length"
attr unit b
vector 22 UseCase2.gNB.eth.phyLayer.interFrameGapInserter interpacketGap:vector ETV
attr interpolationmode sample-hold
attr recordingmode vector
attr source "count(interpacketGapStarted) - count(interpacketGapEnded)"
attr title "interpacket gap state"
attr type int
vector 23 UseCase2.gNB.eth.phyLayer.transmitter transmitting:vector ETV
attr interpolationmode sample-hold
attr recordingmode vector
attr source "count(transmissionStarted) - count(transmissionEnded)"
attr title "transmitting state"
attr type int
vector 24 UseCase2.ue.eth[0].queue queueLength:vector ETV
attr autoWarmupFilter false
attr interpolationmode sample-hold
attr recordingmode vector
attr source "warmup(atomic(constant0(packetPushEnded) + count(packetPushStarted) - count(packetPulled) - count(packetRemoved) - count(packetDropped)))"
attr title "queue length"
attr unit pk
vector 25 UseCase2.ue.eth[0].queue queueBitLength:vector ETV
attr autoWarmupFilter false
attr interpolationmode sample-hold
attr recordingmode vector
attr source "warmup(atomic(constant0(packetPushEnded) + sum(packetLength(packetPushStarted)) - sum(packetLength(packetPulled)) - sum(packetLength(packetRemoved)) - sum(packetLength(packetDropped))))"
attr title "queue bit length"
attr unit b
vector 26 UseCase2.ue.eth[0].mac transmitting:vector ETV
attr interpolationmode sample-hold
attr recordingmode vector
attr source "count(transmissionStarted) - count(transmissionEnded)"
attr title "transmitting state"
attr type int
vector 27 UseCase2.ue.udp passedUpPk:vector(count) ETV
attr interpolationmode none
attr recordingmode vector(count)
attr source packetSentToUpper
attr title "packets passed up, count"
vector 28 UseCase2.ue.udp droppedPkWrongPort:vector(count) ETV
attr interpolationmode none
attr recordingmode vector(count)
attr source packetDropReasonIsNoPortFound(packetDropped)
attr title "packets dropped (wrong port), count"
vector 29 UseCase2.ue.udp droppedPkBadChecksum:vector(count) ETV
attr interpolationmode none
attr recordingmode vector(count)
attr source packetDropReasonIsIncorrectlyReceived(packetDropped)
attr title "packets dropped (checksum error), count"
vector 30 UseCase2.DSTT.clock timeChanged:vector ETV
attr interpolationmode linear
attr recordingmode vector
attr title "Clock time"
vector 31 UseCase2.DSTT.eth[0].queue queueLength:vector ETV
attr autoWarmupFilter false
attr interpolationmode sample-hold
attr recordingmode vector
attr source "warmup(atomic(constant0(packetPushEnded) + count(packetPushStarted) - count(packetPulled) - count(packetRemoved) - count(packetDropped)))"
attr title "queue length"
attr unit pk
vector 32 UseCase2.DSTT.eth[0].queue queueBitLength:vector ETV
attr autoWarmupFilter false
attr interpolationmode sample-hold
attr recordingmode vector
attr source "warmup(atomic(constant0(packetPushEnded) + sum(packetLength(packetPushStarted)) - sum(packetLength(packetPulled)) - sum(packetLength(packetRemoved)) - sum(packetLength(packetDropped))))"
attr title "queue bit length"
attr unit b
vector 33 UseCase2.DSTT.eth[0].mac transmitting:vector ETV
attr interpolationmode sample-hold
attr recordingmode vector
attr source "count(transmissionStarted) - count(transmissionEnded)"
attr title "transmitting state"
attr type int
vector 34 UseCase2.DSTT.eth[1].queue queueLength:vector ETV
attr autoWarmupFilter false
attr interpolationmode sample-hold
attr recordingmode vector
attr source "warmup(atomic(constant0(packetPushEnded) + count(packetPushStarted) - count(packetPulled) - count(packetRemoved) - count(packetDropped)))"
attr title "queue length"
attr unit pk
vector 35 UseCase2.DSTT.eth[1].queue queueBitLength:vector ETV
attr autoWarmupFilter false
attr interpolationmode sample-hold
attr recordingmode vector
attr source "warmup(atomic(constant0(packetPushEnded) + sum(packetLength(packetPushStarted)) - sum(packetLength(packetPulled)) - sum(packetLength(packetRemoved)) - sum(packetLength(packetDropped))))"
attr title "queue bit length"
attr unit b
vector 36 UseCase2.DSTT.eth[1].mac transmitting:vector ETV
attr interpolationmode sample-hold
attr recordingmode vector
attr source "count(transmissionStarted) - count(transmissionEnded)"
attr title "transmitting state"
attr type int
vector 37 UseCase2.DSTT.udp passedUpPk:vector(count) ETV
attr interpolationmode none
attr recordingmode vector(count)
attr source packetSentToUpper
attr title "packets passed up, count"
vector 38 UseCase2.DSTT.udp droppedPkWrongPort:vector(count) ETV
attr interpolationmode none
attr recordingmode vector(count)
attr source packetDropReasonIsNoPortFound(packetDropped)
attr title "packets dropped (wrong port), count"
vector 39 UseCase2.DSTT.udp droppedPkBadChecksum:vector(count) ETV
attr interpolationmode none
attr recordingmode vector(count)
attr source packetDropReasonIsIncorrectlyReceived(packetDropped)
attr title "packets dropped (checksum error), count"
vector 40 UseCase2.NSTT.clock timeChanged:vector ETV
attr interpolationmode linear
attr recordingmode vector
attr title "Clock time"
vector 41 UseCase2.NSTT.eth[0].queue queueLength:vector ETV
attr autoWarmupFilter false
attr interpolationmode sample-hold
attr recordingmode vector
attr source "warmup(atomic(constant0(packetPushEnded) + count(packetPushStarted) - count(packetPulled) - count(packetRemoved) - count(packetDropped)))"
attr title "queue length"
attr unit pk
vector 42 UseCase2.NSTT.eth[0].queue queueBitLength:vector ETV
attr autoWarmupFilter false
attr interpolationmode sample-hold
attr recordingmode vector
attr source "warmup(atomic(constant0(packetPushEnded) + sum(packetLength(packetPushStarted)) - sum(packetLength(packetPulled)) - sum(packetLength(packetRemoved)) - sum(packetLength(packetDropped))))"
attr title "queue bit length"
attr unit b
vector 43 UseCase2.NSTT.eth[0].mac transmitting:vector ETV
attr interpolationmode sample-hold
attr recordingmode vector
attr source "count(transmissionStarted) - count(transmissionEnded)"
attr title "transmitting state"
attr type int
vector 44 UseCase2.NSTT.eth[1].queue queueLength:vector ETV
attr autoWarmupFilter false
attr interpolationmode sample-hold
attr recordingmode vector
attr source "warmup(atomic(constant0(packetPushEnded) + count(packetPushStarted) - count(packetPulled) - count(packetRemoved) - count(packetDropped)))"
attr title "queue length"
attr unit pk
vector 45 UseCase2.NSTT.eth[1].queue queueBitLength:vector ETV
attr autoWarmupFilter false
attr interpolationmode sample-hold
attr recordingmode vector
attr source "warmup(atomic(constant0(packetPushEnded) + sum(packetLength(packetPushStarted)) - sum(packetLength(packetPulled)) - sum(packetLength(packetRemoved)) - sum(packetLength(packetDropped))))"
attr title "queue bit length"
attr unit b
vector 46 UseCase2.NSTT.eth[1].mac transmitting:vector ETV
attr interpolationmode sample-hold
attr recordingmode vector
attr source "count(transmissionStarted) - count(transmissionEnded)"
attr title "transmitting state"
attr type int
vector 47 UseCase2.NSTT.udp passedUpPk:vector(count) ETV
attr interpolationmode none
attr recordingmode vector(count)
attr source packetSentToUpper
attr title "packets passed up, count"
vector 48 UseCase2.NSTT.udp droppedPkWrongPort:vector(count) ETV
attr interpolationmode none
attr recordingmode vector(count)
attr source packetDropReasonIsNoPortFound(packetDropped)
attr title "packets dropped (wrong port), count"
vector 49 UseCase2.NSTT.udp droppedPkBadChecksum:vector(count) ETV
attr interpolationmode none
attr recordingmode vector(count)
attr source packetDropReasonIsIncorrectlyReceived(packetDropped)
attr title "packets dropped (checksum error), count"
vector 50 UseCase2.Actuator.eth[0].macLayer.queue queueLength:vector ETV
attr autoWarmupFilter false
attr interpolationmode sample-hold
attr recordingmode vector
attr source "warmup(atomic(constant0(packetPushEnded) + count(packetPushStarted) - count(packetPulled) - count(packetRemoved) - count(packetDropped)))"
attr title "queue length"
attr unit pk
vector 51 UseCase2.Actuator.eth[0].macLayer.queue queueBitLength:vector ETV
attr autoWarmupFilter false
attr interpolationmode sample-hold
attr recordingmode vector
attr source "warmup(atomic(constant0(packetPushEnded) + sum(packetLength(packetPushStarted)) - sum(packetLength(packetPulled)) - sum(packetLength(packetRemoved)) - sum(packetLength(packetDropped))))"
attr title "queue bit length"
attr unit b
vector 52 UseCase2.Actuator.eth[0].phyLayer.interFrameGapInserter interpacketGap:vector ETV
attr interpolationmode sample-hold
attr recordingmode vector
attr source "count(interpacketGapStarted) - count(interpacketGapEnded)"
attr title "interpacket gap state"
attr type int
vector 53 UseCase2.Actuator.eth[0].phyLayer.transmitter transmitting:vector ETV
attr interpolationmode sample-hold
attr recordingmode vector
attr source "count(transmissionStarted) - count(transmissionEnded)"
attr title "transmitting state"
attr type int
vector 54 UseCase2.Actuator.udp passedUpPk:vector(count) ETV
attr interpolationmode none
attr recordingmode vector(count)
attr source packetSentToUpper
attr title "packets passed up, count"
vector 55 UseCase2.Actuator.udp droppedPkWrongPort:vector(count) ETV
attr interpolationmode none
attr recordingmode vector(count)
attr source packetDropReasonIsNoPortFound(packetDropped)
attr title "packets dropped (wrong port), count"
vector 56 UseCase2.Actuator.udp droppedPkBadChecksum:vector(count) ETV
attr interpolationmode none
attr recordingmode vector(count)
attr source packetDropReasonIsIncorrectlyReceived(packetDropped)
attr title "packets dropped (checksum error), count"
vector 57 UseCase2.Actuator.gptp rateRatio:vector ETV
attr interpolationmode sample-hold
attr recordingmode vector
vector 58 UseCase2.Actuator.gptp correctionField:vector ETV
attr interpolationmode linear
attr recordingmode vector
vector 59 UseCase2.Actuator.gptp localTime:vector ETV
attr "" ""
attr interpolationmode linear
attr recordingmode vector
vector 60 UseCase2.Actuator.gptp timeDifference:vector ETV
attr interpolationmode linear
attr recordingmode vector
vector 61 UseCase2.switch5GC.eth[0].macLayer.queue queueLength:vector ETV
attr autoWarmupFilter false
attr interpolationmode sample-hold
attr recordingmode vector
attr source "warmup(atomic(constant0(packetPushEnded) + count(packetPushStarted) - count(packetPulled) - count(packetRemoved) - count(packetDropped)))"
attr title "queue length"
attr unit pk
vector 62 UseCase2.switch5GC.eth[0].macLayer.queue queueBitLength:vector ETV
attr autoWarmupFilter false
attr interpolationmode sample-hold
attr recordingmode vector
attr source "warmup(atomic(constant0(packetPushEnded) + sum(packetLength(packetPushStarted)) - sum(packetLength(packetPulled)) - sum(packetLength(packetRemoved)) - sum(packetLength(packetDropped))))"
attr title "queue bit length"
attr unit b
vector 63 UseCase2.switch5GC.eth[0].phyLayer.interFrameGapInserter interpacketGap:vector ETV
attr interpolationmode sample-hold
attr recordingmode vector
attr source "count(interpacketGapStarted) - count(interpacketGapEnded)"
attr title "interpacket gap state"
attr type int
vector 64 UseCase2.switch5GC.eth[0].phyLayer.transmitter transmitting:vector ETV
attr interpolationmode sample-hold
attr recordingmode vector
attr source "count(transmissionStarted) - count(transmissionEnded)"
attr title "transmitting state"
attr type int
vector 65 UseCase2.switch5GC.eth[1].macLayer.queue queueLength:vector ETV
attr autoWarmupFilter false
attr interpolationmode sample-hold
attr recordingmode vector
attr source "warmup(atomic(constant0(packetPushEnded) + count(packetPushStarted) - count(packetPulled) - count(packetRemoved) - count(packetDropped)))"
attr title "queue length"
attr unit pk
vector 66 UseCase2.switch5GC.eth[1].macLayer.queue queueBitLength:vector ETV
attr autoWarmupFilter false
attr interpolationmode sample-hold
attr recordingmode vector
attr source "warmup(atomic(constant0(packetPushEnded) + sum(packetLength(packetPushStarted)) - sum(packetLength(packetPulled)) - sum(packetLength(packetRemoved)) - sum(packetLength(packetDropped))))"
attr title "queue bit length"
attr unit b
vector 67 UseCase2.switch5GC.eth[1].phyLayer.interFrameGapInserter interpacketGap:vector ETV
attr interpolationmode sample-hold
attr recordingmode vector
attr source "count(interpacketGapStarted) - count(interpacketGapEnded)"
attr title "interpacket gap state"
attr type int
vector 68 UseCase2.switch5GC.eth[1].phyLayer.transmitter transmitting:vector ETV
attr interpolationmode sample-hold
attr recordingmode vector
attr source "count(transmissionStarted) - count(transmissionEnded)"
attr title "transmitting state"
attr type int
vector 69 UseCase2.switchTSN.gptp rateRatio:vector ETV
attr interpolationmode sample-hold
attr recordingmode vector
vector 70 UseCase2.switchTSN.gptp correctionField:vector ETV
attr interpolationmode linear
attr recordingmode vector
vector 71 UseCase2.switchTSN.gptp localTime:vector ETV
attr "" ""
attr interpolationmode linear
attr recordingmode vector
vector 72 UseCase2.switchTSN.gptp timeDifference:vector ETV
attr interpolationmode linear
attr recordingmode vector
vector 73 UseCase2.switchTSN.eth[0].macLayer.queue queueLength:vector ETV
attr autoWarmupFilter false
attr interpolationmode sample-hold
attr recordingmode vector
attr source "warmup(atomic(constant0(packetPushEnded) + count(packetPushStarted) - count(packetPulled) - count(packetRemoved) - count(packetDropped)))"
attr title "queue length"
attr unit pk
vector 74 UseCase2.switchTSN.eth[0].macLayer.queue queueBitLength:vector ETV
attr autoWarmupFilter false
attr interpolationmode sample-hold
attr recordingmode vector
attr source "warmup(atomic(constant0(packetPushEnded) + sum(packetLength(packetPushStarted)) - sum(packetLength(packetPulled)) - sum(packetLength(packetRemoved)) - sum(packetLength(packetDropped))))"
attr title "queue bit length"
attr unit b
vector 75 UseCase2.switchTSN.eth[0].phyLayer.interFrameGapInserter interpacketGap:vector ETV
attr interpolationmode sample-hold
attr recordingmode vector
attr source "count(interpacketGapStarted) - count(interpacketGapEnded)"
attr title "interpacket gap state"
attr type int
vector 76 UseCase2.switchTSN.eth[0].phyLayer.transmitter transmitting:vector ETV
attr interpolationmode sample-hold
attr recordingmode vector
attr source "count(transmissionStarted) - count(transmissionEnded)"
attr title "transmitting state"
attr type int
vector 77 UseCase2.switchTSN.eth[1].macLayer.queue queueLength:vector ETV
attr autoWarmupFilter false
attr interpolationmode sample-hold
attr recordingmode vector
attr source "warmup(atomic(constant0(packetPushEnded) + count(packetPushStarted) - count(packetPulled) - count(packetRemoved) - count(packetDropped)))"
attr title "queue length"
attr unit pk
vector 78 UseCase2.switchTSN.eth[1].macLayer.queue queueBitLength:vector ETV
attr autoWarmupFilter false
attr interpolationmode sample-hold
attr recordingmode vector
attr source "warmup(atomic(constant0(packetPushEnded) + sum(packetLength(packetPushStarted)) - sum(packetLength(packetPulled)) - sum(packetLength(packetRemoved)) - sum(packetLength(packetDropped))))"
attr title "queue bit length"
attr unit b
vector 79 UseCase2.switchTSN.eth[1].phyLayer.interFrameGapInserter interpacketGap:vector ETV
attr interpolationmode sample-hold
attr recordingmode vector
attr source "count(interpacketGapStarted) - count(interpacketGapEnded)"
attr title "interpacket gap state"
attr type int
vector 80 UseCase2.switchTSN.eth[1].phyLayer.transmitter transmitting:vector ETV
attr interpolationmode sample-hold
attr recordingmode vector
attr source "count(transmissionStarted) - count(transmissionEnded)"
attr title "transmitting state"
attr type int
vector 81 UseCase2.switchTSN.eth[2].macLayer.queue queueLength:vector ETV
attr autoWarmupFilter false
attr interpolationmode sample-hold
attr recordingmode vector
attr source "warmup(atomic(constant0(packetPushEnded) + count(packetPushStarted) - count(packetPulled) - count(packetRemoved) - count(packetDropped)))"
attr title "queue length"
attr unit pk
vector 82 UseCase2.switchTSN.eth[2].macLayer.queue queueBitLength:vector ETV
attr autoWarmupFilter false
attr interpolationmode sample-hold
attr recordingmode vector
attr source "warmup(atomic(constant0(packetPushEnded) + sum(packetLength(packetPushStarted)) - sum(packetLength(packetPulled)) - sum(packetLength(packetRemoved)) - sum(packetLength(packetDropped))))"
attr title "queue bit length"
attr unit b
vector 83 UseCase2.switchTSN.eth[2].phyLayer.interFrameGapInserter interpacketGap:vector ETV
attr interpolationmode sample-hold
attr recordingmode vector
attr source "count(interpacketGapStarted) - count(interpacketGapEnded)"
attr title "interpacket gap state"
attr type int
vector 84 UseCase2.switchTSN.eth[2].phyLayer.transmitter transmitting:vector ETV
attr interpolationmode sample-hold
attr recordingmode vector
attr source "count(transmissionStarted) - count(transmissionEnded)"
attr title "transmitting state"
attr type int
vector 85 UseCase2.PLC.eth[0].macLayer.queue queueLength:vector ETV
attr autoWarmupFilter false
attr interpolationmode sample-hold
attr recordingmode vector
attr source "warmup(atomic(constant0(packetPushEnded) + count(packetPushStarted) - count(packetPulled) - count(packetRemoved) - count(packetDropped)))"
attr title "queue length"
attr unit pk
vector 86 UseCase2.PLC.eth[0].macLayer.queue queueBitLength:vector ETV
attr autoWarmupFilter false
attr interpolationmode sample-hold
attr recordingmode vector
attr source "warmup(atomic(constant0(packetPushEnded) + sum(packetLength(packetPushStarted)) - sum(packetLength(packetPulled)) - sum(packetLength(packetRemoved)) - sum(packetLength(packetDropped))))"
attr title "queue bit length"
attr unit b
vector 87 UseCase2.PLC.eth[0].phyLayer.interFrameGapInserter interpacketGap:vector ETV
attr interpolationmode sample-hold
attr recordingmode vector
attr source "count(interpacketGapStarted) - count(interpacketGapEnded)"
attr title "interpacket gap state"
attr type int
vector 88 UseCase2.PLC.eth[0].phyLayer.transmitter transmitting:vector ETV
attr interpolationmode sample-hold
attr recordingmode vector
attr source "count(transmissionStarted) - count(transmissionEnded)"
attr title "transmitting state"
attr type int
vector 89 UseCase2.PLC.udp passedUpPk:vector(count) ETV
attr interpolationmode none
attr recordingmode vector(count)
attr source packetSentToUpper
attr title "packets passed up, count"
vector 90 UseCase2.PLC.udp droppedPkWrongPort:vector(count) ETV
attr interpolationmode none
attr recordingmode vector(count)
attr source packetDropReasonIsNoPortFound(packetDropped)
attr title "packets dropped (wrong port), count"
vector 91 UseCase2.PLC.udp droppedPkBadChecksum:vector(count) ETV
attr interpolationmode none
attr recordingmode vector(count)
attr source packetDropReasonIsIncorrectlyReceived(packetDropped)
attr title "packets dropped (checksum error), count"
vector 92 UseCase2.Sensor.eth[0].macLayer.queue queueLength:vector ETV
attr autoWarmupFilter false
attr interpolationmode sample-hold
attr recordingmode vector
attr source "warmup(atomic(constant0(packetPushEnded) + count(packetPushStarted) - count(packetPulled) - count(packetRemoved) - count(packetDropped)))"
attr title "queue length"
attr unit pk
vector 93 UseCase2.Sensor.eth[0].macLayer.queue queueBitLength:vector ETV
attr autoWarmupFilter false
attr interpolationmode sample-hold
attr recordingmode vector
attr source "warmup(atomic(constant0(packetPushEnded) + sum(packetLength(packetPushStarted)) - sum(packetLength(packetPulled)) - sum(packetLength(packetRemoved)) - sum(packetLength(packetDropped))))"
attr title "queue bit length"
attr unit b
vector 94 UseCase2.Sensor.eth[0].phyLayer.interFrameGapInserter interpacketGap:vector ETV
attr interpolationmode sample-hold
attr recordingmode vector
attr source "count(interpacketGapStarted) - count(interpacketGapEnded)"
attr title "interpacket gap state"
attr type int
vector 95 UseCase2.Sensor.eth[0].phyLayer.transmitter transmitting:vector ETV
attr interpolationmode sample-hold
attr recordingmode vector
attr source "count(transmissionStarted) - count(transmissionEnded)"
attr title "transmitting state"
attr type int
vector 96 UseCase2.Sensor.udp passedUpPk:vector(count) ETV
attr interpolationmode none
attr recordingmode vector(count)
attr source packetSentToUpper
attr title "packets passed up, count"
vector 97 UseCase2.Sensor.udp droppedPkWrongPort:vector(count) ETV
attr interpolationmode none
attr recordingmode vector(count)
attr source packetDropReasonIsNoPortFound(packetDropped)
attr title "packets dropped (wrong port), count"
vector 98 UseCase2.Sensor.udp droppedPkBadChecksum:vector(count) ETV
attr interpolationmode none
attr recordingmode vector(count)
attr source packetDropReasonIsIncorrectlyReceived(packetDropped)
attr title "packets dropped (checksum error), count"
vector 99 UseCase2.Sensor.gptp rateRatio:vector ETV
attr interpolationmode sample-hold
attr recordingmode vector
vector 100 UseCase2.Sensor.gptp correctionField:vector ETV
attr interpolationmode linear
attr recordingmode vector
vector 101 UseCase2.Sensor.gptp localTime:vector ETV
attr "" ""
attr interpolationmode linear
attr recordingmode vector
vector 102 UseCase2.Sensor.gptp timeDifference:vector ETV
attr interpolationmode linear
attr recordingmode vector
vector 103 UseCase2.ue2.eth[0].queue queueLength:vector ETV
attr autoWarmupFilter false
attr interpolationmode sample-hold
attr recordingmode vector
attr source "warmup(atomic(constant0(packetPushEnded) + count(packetPushStarted) - count(packetPulled) - count(packetRemoved) - count(packetDropped)))"
attr title "queue length"
attr unit pk
vector 104 UseCase2.ue2.eth[0].queue queueBitLength:vector ETV
attr autoWarmupFilter false
attr interpolationmode sample-hold
attr recordingmode vector
attr source "warmup(atomic(constant0(packetPushEnded) + sum(packetLength(packetPushStarted)) - sum(packetLength(packetPulled)) - sum(packetLength(packetRemoved)) - sum(packetLength(packetDropped))))"
attr title "queue bit length"
attr unit b
vector 105 UseCase2.ue2.eth[0].mac transmitting:vector ETV
attr interpolationmode sample-hold
attr recordingmode vector
attr source "count(transmissionStarted) - count(transmissionEnded)"
attr title "transmitting state"
attr type int
vector 106 UseCase2.ue2.udp passedUpPk:vector(count) ETV
attr interpolationmode none
attr recordingmode vector(count)
attr source packetSentToUpper
attr title "packets passed up, count"
vector 107 UseCase2.ue2.udp droppedPkWrongPort:vector(count) ETV
attr interpolationmode none
attr recordingmode vector(count)
attr source packetDropReasonIsNoPortFound(packetDropped)
attr title "packets dropped (wrong port), count"
vector 108 UseCase2.ue2.udp droppedPkBadChecksum:vector(count) ETV
attr interpolationmode none
attr recordingmode vector(count)
attr source packetDropReasonIsIncorrectlyReceived(packetDropped)
attr title "packets dropped (checksum error), count"
vector 109 UseCase2.DSTT2.clock timeChanged:vector ETV
attr interpolationmode linear
attr recordingmode vector
attr title "Clock time"
vector 110 UseCase2.DSTT2.eth[0].queue queueLength:vector ETV
attr autoWarmupFilter false
attr interpolationmode sample-hold
attr recordingmode vector
attr source "warmup(atomic(constant0(packetPushEnded) + count(packetPushStarted) - count(packetPulled) - count(packetRemoved) - count(packetDropped)))"
attr title "queue length"
attr unit pk
vector 111 UseCase2.DSTT2.eth[0].queue queueBitLength:vector ETV
attr autoWarmupFilter false
attr interpolationmode sample-hold
attr recordingmode vector
attr source "warmup(atomic(constant0(packetPushEnded) + sum(packetLength(packetPushStarted)) - sum(packetLength(packetPulled)) - sum(packetLength(packetRemoved)) - sum(packetLength(packetDropped))))"
attr title "queue bit length"
attr unit b
vector 112 UseCase2.DSTT2.eth[0].mac transmitting:vector ETV
attr interpolationmode sample-hold
attr recordingmode vector
attr source "count(transmissionStarted) - count(transmissionEnded)"
attr title "transmitting state"
attr type int
vector 113 UseCase2.DSTT2.eth[1].queue queueLength:vector ETV
attr autoWarmupFilter false
attr interpolationmode sample-hold
attr recordingmode vector
attr source "warmup(atomic(constant0(packetPushEnded) + count(packetPushStarted) - count(packetPulled) - count(packetRemoved) - count(packetDropped)))"
attr title "queue length"
attr unit pk
vector 114 UseCase2.DSTT2.eth[1].queue queueBitLength:vector ETV
attr autoWarmupFilter false
attr interpolationmode sample-hold
attr recordingmode vector
attr source "warmup(atomic(constant0(packetPushEnded) + sum(packetLength(packetPushStarted)) - sum(packetLength(packetPulled)) - sum(packetLength(packetRemoved)) - sum(packetLength(packetDropped))))"
attr title "queue bit length"
attr unit b
vector 115 UseCase2.DSTT2.eth[1].mac transmitting:vector ETV
attr interpolationmode sample-hold
attr recordingmode vector
attr source "count(transmissionStarted) - count(transmissionEnded)"
attr title "transmitting state"
attr type int
vector 116 UseCase2.DSTT2.udp passedUpPk:vector(count) ETV
attr interpolationmode none
attr recordingmode vector(count)
attr source packetSentToUpper
attr title "packets passed up, count"
vector 117 UseCase2.DSTT2.udp droppedPkWrongPort:vector(count) ETV
attr interpolationmode none
attr recordingmode vector(count)
attr source packetDropReasonIsNoPortFound(packetDropped)
attr title "packets dropped (wrong port), count"
vector 118 UseCase2.DSTT2.udp droppedPkBadChecksum:vector(count) ETV
attr interpolationmode none
attr recordingmode vector(count)
attr source packetDropReasonIsIncorrectlyReceived(packetDropped)
attr title "packets dropped (checksum error), count"
vector 119 UseCase2.switchTSN2.gptp rateRatio:vector ETV
attr interpolationmode sample-hold
attr recordingmode vector
vector 120 UseCase2.switchTSN2.gptp correctionField:vector ETV
attr interpolationmode linear
attr recordingmode vector
vector 121 UseCase2.switchTSN2.gptp localTime:vector ETV
attr "" ""
attr interpolationmode linear
attr recordingmode vector
vector 122 UseCase2.switchTSN2.gptp timeDifference:vector ETV
attr interpolationmode linear
attr recordingmode vector
vector 123 UseCase2.switchTSN2.eth[0].macLayer.queue queueLength:vector ETV
attr autoWarmupFilter false
attr interpolationmode sample-hold
attr recordingmode vector
attr source "warmup(atomic(constant0(packetPushEnded) + count(packetPushStarted) - count(packetPulled) - count(packetRemoved) - count(packetDropped)))"
attr title "queue length"
attr unit pk
vector 124 UseCase2.switchTSN2.eth[0].macLayer.queue queueBitLength:vector ETV
attr autoWarmupFilter false
attr interpolationmode sample-hold
attr recordingmode vector
attr source "warmup(atomic(constant0(packetPushEnded) + sum(packetLength(packetPushStarted)) - sum(packetLength(packetPulled)) - sum(packetLength(packetRemoved)) - sum(packetLength(packetDropped))))"
attr title "queue bit length"
attr unit b
vector 125 UseCase2.switchTSN2.eth[0].phyLayer.interFrameGapInserter interpacketGap:vector ETV
attr interpolationmode sample-hold
attr recordingmode vector
attr source "count(interpacketGapStarted) - count(interpacketGapEnded)"
attr title "interpacket gap state"
attr type int
vector 126 UseCase2.switchTSN2.eth[0].phyLayer.transmitter transmitting:vector ETV
attr interpolationmode sample-hold
attr recordingmode vector
attr source "count(transmissionStarted) - count(transmissionEnded)"
attr title "transmitting state"
attr type int
vector 127 UseCase2.switchTSN2.eth[1].macLayer.queue queueLength:vector ETV
attr autoWarmupFilter false
attr interpolationmode sample-hold
attr recordingmode vector
attr source "warmup(atomic(constant0(packetPushEnded) + count(packetPushStarted) - count(packetPulled) - count(packetRemoved) - count(packetDropped)))"
attr title "queue length"
attr unit pk
vector 128 UseCase2.switchTSN2.eth[1].macLayer.queue queueBitLength:vector ETV
attr autoWarmupFilter false
attr interpolationmode sample-hold
attr recordingmode vector
attr source "warmup(atomic(constant0(packetPushEnded) + sum(packetLength(packetPushStarted)) - sum(packetLength(packetPulled)) - sum(packetLength(packetRemoved)) - sum(packetLength(packetDropped))))"
attr title "queue bit length"
attr unit b
vector 129 UseCase2.switchTSN2.eth[1].phyLayer.interFrameGapInserter interpacketGap:vector ETV
attr interpolationmode sample-hold
attr recordingmode vector
attr source "count(interpacketGapStarted) - count(interpacketGapEnded)"
attr title "interpacket gap state"
attr type int
vector 130 UseCase2.switchTSN2.eth[1].phyLayer.transmitter transmitting:vector ETV
attr interpolationmode sample-hold
attr recordingmode vector
attr source "count(transmissionStarted) - count(transmissionEnded)"
attr title "transmitting state"
attr type int
vector 131 UseCase2.Actuator2.eth[0].macLayer.queue queueLength:vector ETV
attr autoWarmupFilter false
attr interpolationmode sample-hold
attr recordingmode vector
attr source "warmup(atomic(constant0(packetPushEnded) + count(packetPushStarted) - count(packetPulled) - count(packetRemoved) - count(packetDropped)))"
attr title "queue length"
attr unit pk
vector 132 UseCase2.Actuator2.eth[0].macLayer.queue queueBitLength:vector ETV
attr autoWarmupFilter false
attr interpolationmode sample-hold
attr recordingmode vector
attr source "warmup(atomic(constant0(packetPushEnded) + sum(packetLength(packetPushStarted)) - sum(packetLength(packetPulled)) - sum(packetLength(packetRemoved)) - sum(packetLength(packetDropped))))"
attr title "queue bit length"
attr unit b
vector 133 UseCase2.Actuator2.eth[0].phyLayer.interFrameGapInserter interpacketGap:vector ETV
attr interpolationmode sample-hold
attr recordingmode vector
attr source "count(interpacketGapStarted) - count(interpacketGapEnded)"
attr title "interpacket gap state"
attr type int
vector 134 UseCase2.Actuator2.eth[0].phyLayer.transmitter transmitting:vector ETV
attr interpolationmode sample-hold
attr recordingmode vector
attr source "count(transmissionStarted) - count(transmissionEnded)"
attr title "transmitting state"
attr type int
vector 135 UseCase2.Actuator2.udp passedUpPk:vector(count) ETV
attr interpolationmode none
attr recordingmode vector(count)
attr source packetSentToUpper
attr title "packets passed up, count"
vector 136 UseCase2.Actuator2.udp droppedPkWrongPort:vector(count) ETV
attr interpolationmode none
attr recordingmode vector(count)
attr source packetDropReasonIsNoPortFound(packetDropped)
attr title "packets dropped (wrong port), count"
vector 137 UseCase2.Actuator2.udp droppedPkBadChecksum:vector(count) ETV
attr interpolationmode none
attr recordingmode vector(count)
attr source packetDropReasonIsIncorrectlyReceived(packetDropped)
attr title "packets dropped (checksum error), count"
vector 138 UseCase2.Actuator2.gptp rateRatio:vector ETV
attr interpolationmode sample-hold
attr recordingmode vector
vector 139 UseCase2.Actuator2.gptp correctionField:vector ETV
attr interpolationmode linear
attr recordingmode vector
vector 140 UseCase2.Actuator2.gptp localTime:vector ETV
attr "" ""
attr interpolationmode linear
attr recordingmode vector
vector 141 UseCase2.Actuator2.gptp timeDifference:vector ETV
attr interpolationmode linear
attr recordingmode vector
vector 142 UseCase2.ue.cellularNic.phy servingCell:vector ETV
attr recordingmode vector
attr source servingCell
attr title "ID of the serving eNodeB for the UE"
attr unit ""
vector 143 UseCase2.ue.cellularNic.nrPhy servingCell:vector ETV
attr recordingmode vector
attr source servingCell
attr title "ID of the serving eNodeB for the UE"
attr unit ""
vector 144 UseCase2.ue2.cellularNic.phy servingCell:vector ETV
attr recordingmode vector
attr source servingCell
attr title "ID of the serving eNodeB for the UE"
attr unit ""
vector 145 UseCase2.ue2.cellularNic.nrPhy servingCell:vector ETV
attr recordingmode vector
attr source servingCell
attr title "ID of the serving eNodeB for the UE"
attr unit ""
vector 146 UseCase2.Actuator.clock timeChanged:vector ETV
attr interpolationmode linear
attr recordingmode vector
attr title "Clock time"
vector 147 UseCase2.switchTSN.clock timeChanged:vector ETV
attr interpolatr source servingCell
attr title "ID of the serving eNodeB for the UE"
attr unit ""
vector 145 UseCase2.ue2.cellularNic.nrPhy servingCell:vector ETV
attr recordingmode vector
attr source servingCell
attr title "ID of the serving eNodeB for the UE"
attr unit ""
vector 146 UseCase2.Actuator.clock timeChanged:vector ETV
attr interpolationmode linear
attr recordingmode vector
attr title "Clock time"
vector 147 UseCase2.switchTSN.clock timeChanged:vector ETV
attr interpolationmode linear
attr recordingmode vector
attr title "Clock time"
vector 148 UseCase2.Sensor.clock timeChanged:vector ETV
attr interpolationmode linear
attr recordingmode vector
attr title "Clock time"
vector 149 UseCase2.switchTSN2.clock timeChanged:vector ETV
attr interpolationmode linear
attr recordingmode vector
attr title "Clock time"
vector 150 UseCase2.Actuator2.clock timeChanged:vector ETV
attr interpolationmode linear
attr recordingmode vector
attr title "Clock time"
0	41848 16 0 0 0 0 2 0 0 0 0
1	41864 40 0 0 0 0 5 0 0 0 0
2	41904 40 0 0 0 0 5 0 0 0 0
3	41944 16 0 0 0 0 2 0 0 0 0
4	41960 40 0 0 0 0 5 0 0 0 0
5	42000 40 0 0 0 0 5 0 0 0 0
6	42040 16 0 0 0 0 2 0 0 0 0
7	42056 16 0 0 0 0 2 0 0 0 0
8	42072 8 0 0 0 0 1 0 0 0 0
9	42080 8 0 0 0 0 1 0 0 0 0
10	42088 9 0 0 0 0 1 0 0 0 0
11	42097 45 0 0 0 0 5 0 0 0 0
12	42142 45 0 0 0 0 5 0 0 0 0
13	42187 9 0 0 0 0 1 0 0 0 0
14	42196 45 0 0 0 0 5 0 0 0 0
15	42241 45 0 0 0 0 5 0 0 0 0
16	42286 9 0 0 0 0 1 0 0 0 0
17	42295 9 0 0 0 0 1 0 0 0 0
18	42304 9 0 0 0 0 1 0 0 0 0
19	42313 9 0 0 0 0 1 0 0 0 0
20	42322 45 0 0 0 0 5 0 0 0 0
21	42367 45 0 0 0 0 5 0 0 0 0
22	42412 18 0 0 0 0 2 0 0 0 0
23	42430 18 0 0 0 0 2 0 0 0 0
24	42448 45 0 0 0 0 5 0 0 0 0
25	42493 45 0 0 0 0 5 0 0 0 0
26	42538 18 0 0 0 0 2 0 0 0 0
27	42556 9 0 0 0 0 1 0 0 0 0
28	42565 9 0 0 0 0 1 0 0 0 0
29	42574 9 0 0 0 0 1 0 0 0 0
30	42583 18 0 0 0 0 2 0 0 0 0
31	42601 45 0 0 0 0 5 0 0 0 0
32	42646 45 0 0 0 0 5 0 0 0 0
33	42691 18 0 0 0 0 2 0 0 0 0
34	42709 45 0 0 0 0 5 0 0 0 0
35	42754 45 0 0 0 0 5 0 0 0 0
36	42799 18 0 0 0 0 2 0 0 0 0
37	42817 9 0 0 0 0 1 0 0 0 0
38	42826 9 0 0 0 0 1 0 0 0 0
39	42835 9 0 0 0 0 1 0 0 0 0
40	42844 18 0 0 0 0 2 0 0 0 0
41	42862 45 0 0 0 0 5 0 0 0 0
42	42907 45 0 0 0 0 5 0 0 0 0
43	42952 18 0 0 0 0 2 0 0 0 0
44	42970 45 0 0 0 0 5 0 0 0 0
45	43015 45 0 0 0 0 5 0 0 0 0
46	43060 18 0 0 0 0 2 0 0 0 0
47	43078 9 0 0 0 0 1 0 0 0 0
48	43087 9 0 0 0 0 1 0 0 0 0
49	43096 9 0 0 0 0 1 0 0 0 0
50	43105 45 0 0 0 0 5 0 0 0 0
51	43150 45 0 0 0 0 5 0 0 0 0
52	43195 18 0 0 0 0 2 0 0 0 0
53	43213 18 0 0 0 0 2 0 0 0 0
54	43231 9 0 0 0 0 1 0 0 0 0
55	43240 9 0 0 0 0 1 0 0 0 0
56	43249 9 0 0 0 0 1 0 0 0 0
57	43258 207 0 0 0 0 23 1 1 23 23
58	43465 207 0 0 0 0 23 0 0 0 0
59	43672 207 0 0 0 0 23 0 0 0 0
60	43879 207 0 0 0 0 23 0 0 0 0
61	44086 45 0 0 0 0 5 0 0 0 0
62	44131 45 0 0 0 0 5 0 0 0 0
63	44176 18 0 0 0 0 2 0 0 0 0
64	44194 18 0 0 0 0 2 0 0 0 0
65	44212 45 0 0 0 0 5 0 0 0 0
66	44257 45 0 0 0 0 5 0 0 0 0
67	44302 18 0 0 0 0 2 0 0 0 0
68	44320 18 0 0 0 0 2 0 0 0 0
69	44338 207 0 0 0 0 23 1 1 23 23
70	44545 207 0 0 0 0 23 0 0 0 0
71	44752 207 0 0 0 0 23 0 0 0 0
72	44959 207 0 0 0 0 23 0 0 0 0
73	45166 45 0 0 0 0 5 0 0 0 0
74	45211 45 0 0 0 0 5 0 0 0 0
75	45256 18 0 0 0 0 2 0 0 0 0
76	45274 18 0 0 0 0 2 0 0 0 0
77	45292 45 0 0 0 0 5 0 0 0 0
78	45337 45 0 0 0 0 5 0 0 0 0
79	45382 18 0 0 0 0 2 0 0 0 0
80	45400 18 0 0 0 0 2 0 0 0 0
81	45418 45 0 0 0 0 5 0 0 0 0
82	45463 45 0 0 0 0 5 0 0 0 0
83	45508 18 0 0 0 0 2 0 0 0 0
84	45526 18 0 0 0 0 2 0 0 0 0
85	45544 45 0 0 0 0 5 0 0 0 0
86	45589 45 0 0 0 0 5 0 0 0 0
87	45634 18 0 0 0 0 2 0 0 0 0
88	45652 18 0 0 0 0 2 0 0 0 0
89	45670 9 0 0 0 0 1 0 0 0 0
90	45679 9 0 0 0 0 1 0 0 0 0
91	45688 9 0 0 0 0 1 0 0 0 0
92	45697 45 0 0 0 0 5 0 0 0 0
93	45742 45 0 0 0 0 5 0 0 0 0
94	45787 18 0 0 0 0 2 0 0 0 0
95	45805 18 0 0 0 0 2 0 0 0 0
96	45823 9 0 0 0 0 1 0 0 0 0
97	45832 9 0 0 0 0 1 0 0 0 0
98	45841 9 0 0 0 0 1 0 0 0 0
99	45850 207 0 0 0 0 23 1 1 23 23
100	46057 230 0 0 0 0 23 0 0 0 0
101	46287 230 0 0 0 0 23 0 0 0 0
102	46517 230 0 0 0 0 23 0 0 0 0
103	46747 50 0 0 0 0 5 0 0 0 0
104	46797 50 0 0 0 0 5 0 0 0 0
105	46847 20 0 0 0 0 2 0 0 0 0
106	46867 10 0 0 0 0 1 0 0 0 0
107	46877 10 0 0 0 0 1 0 0 0 0
108	46887 10 0 0 0 0 1 0 0 0 0
109	46897 20 0 0 0 0 2 0 0 0 0
110	46917 50 0 0 0 0 5 0 0 0 0
111	46967 50 0 0 0 0 5 0 0 0 0
112	47017 20 0 0 0 0 2 0 0 0 0
113	47037 50 0 0 0 0 5 0 0 0 0
114	47087 50 0 0 0 0 5 0 0 0 0
115	47137 20 0 0 0 0 2 0 0 0 0
116	47157 10 0 0 0 0 1 0 0 0 0
117	47167 10 0 0 0 0 1 0 0 0 0
118	47177 10 0 0 0 0 1 0 0 0 0
119	47187 230 0 0 0 0 23 1 1 23 23
120	47417 230 0 0 0 0 23 0 0 0 0
121	47647 230 0 0 0 0 23 0 0 0 0
122	47877 230 0 0 0 0 23 0 0 0 0
123	48107 50 0 0 0 0 5 0 0 0 0
124	48157 50 0 0 0 0 5 0 0 0 0
125	48207 20 0 0 0 0 2 0 0 0 0
126	48227 20 0 0 0 0 2 0 0 0 0
127	48247 50 0 0 0 0 5 0 0 0 0
128	48297 50 0 0 0 0 5 0 0 0 0
129	48347 20 0 0 0 0 2 0 0 0 0
130	48367 20 0 0 0 0 2 0 0 0 0
131	48387 50 0 0 0 0 5 0 0 0 0
132	48437 50 0 0 0 0 5 0 0 0 0
133	48487 20 0 0 0 0 2 0 0 0 0
134	48507 20 0 0 0 0 2 0 0 0 0
135	48527 10 0 0 0 0 1 0 0 0 0
136	48537 10 0 0 0 0 1 0 0 0 0
137	48547 10 0 0 0 0 1 0 0 0 0
138	48557 230 0 0 0 0 23 1 1 23 23
139	48787 230 0 0 0 0 23 0 0 0 0
140	49017 230 0 0 0 0 23 0 0 0 0
141	49247 230 0 0 0 0 23 0 0 0 0
142	49477 10 0 0 0 0 1 0 0 0 0
143	49487 10 0 0 0 0 1 1 1 1 1
144	49497 10 0 0 0 0 1 0 0 0 0
145	49507 10 0 0 0 0 1 1 1 1 1
146	49517 10 0 0 0 0 1 0 0 0 0
147	49527 10 0 0 0 0 1 0 0 0 0
148	49537 10 0 0 0 0 1 0 0 0 0
149	49547 10 0 0 0 0 1 0 0 0 0
150	49557 10 0 0 0 0 1 0 0 0 0

nit b
vector 171 UseCase2.switchTSN2.eth[0].macLayer.queue incomingPacketLengths:vector ETV
attr interpolationmode none
attr recordingmode vector
attr source packetLength(packetPushStarted)
attr title "incoming packet lengths"
attr unit b
vector 172 UseCase2.Actuator2.ethernet.macHeaderInserter incomingPacketLengths:vector ETV
attr interpolationmode none
attr recordingmode vector
attr source "packetLength(merge(packetPushedIn, packetPulledIn))"
attr title "incoming packet lengths"
attr unit b
vector 173 UseCase2.Actuator2.ethernet.macHeaderInserter outgoingPacketLengths:vector ETV
attr interpolationmode none
attr recordingmode vector
attr source "packetLength(merge(packetPushedOut, packetPulledOut))"
attr title "outgoing packet lengths"
attr unit b
vector 174 UseCase2.Actuator2.ethernet.paddingInserter incomingPacketLengths:vector ETV
attr interpolationmode none
attr recordingmode vector
attr source "packetLength(merge(packetPushedIn, packetPulledIn))"
attr title "incoming packet lengths"
attr unit b
vector 175 UseCase2.Actuator2.ethernet.paddingInserter outgoingPacketLengths:vector ETV
attr interpolationmode none
attr recordingmode vector
attr source "packetLength(merge(packetPushedOut, packetPulledOut))"
attr title "outgoing packet lengths"
attr unit b
vector 176 UseCase2.Actuator2.ethernet.fcsInserter incomingPacketLengths:vector ETV
attr interpolationmode none
attr recordingmode vector
attr source "packetLength(merge(packetPushedIn, packetPulledIn))"
attr title "incoming packet lengths"
attr unit b
vector 177 UseCase2.Actuator2.ethernet.fcsInserter outgoingPacketLengths:vector ETV
attr interpolationmode none
attr recordingmode vector
attr source "packetLength(merge(packetPushedOut, packetPulledOut))"
attr title "outgoing packet lengths"
attr unit b
vector 178 UseCase2.Actuator2.eth[0].macLayer.queue incomingPacketLengths:vector ETV
attr interpolationmode none
attr recordingmode vector
attr source packetLength(packetPushStarted)
attr title "incoming packet lengths"
attr unit b
vector 179 UseCase2.Actuator.eth[0].macLayer.queue queueingTime:vector ETV
attr interpolationmode none
attr recordingmode vector
attr source queueingTime(packetPulled)
attr title "queueing times"
attr unit s
vector 180 UseCase2.Actuator.eth[0].macLayer.queue outgoingPacketLengths:vector ETV
attr interpolationmode none
attr recordingmode vector
attr source packetLength(packetPulled)
attr title "outgoing packet lengths"
attr unit b
vector 181 UseCase2.Actuator.eth[0].macLayer.server incomingPacketLengths:vector ETV
attr interpolationmode none
attr recordingmode vector
attr source packetLength(packetPulled)
attr title "incoming packet lengths"
attr unit b
vector 182 UseCase2.Actuator.eth[0].macLayer.server outgoingPacketLengths:vector ETV
attr interpolationmode none
attr recordingmode vector
attr source packetLength(packetPushed)
attr title "outgoing packet lengths"
attr unit b
vector 183 UseCase2.Actuator.eth[0].macLayer.outboundEmitter incomingPacketLengths:vector ETV
attr interpolationmode none
attr recordingmode vector
attr source "packetLength(merge(packetPushedIn, packetPulledIn))"
attr title "incoming packet lengths"
attr unit b
vector 184 UseCase2.Actuator.eth[0].macLayer.outboundEmitter outgoingPacketLengths:vector ETV
attr interpolationmode none
attr recordingmode vector
attr source "packetLength(merge(packetPushedOut, packetPulledOut))"
attr title "outgoing packet lengths"
attr unit b
vector 185 UseCase2.Actuator.eth[0].phyLayer.phyHeaderInserter incomingPacketLengths:vector ETV
attr interpolationmode none
attr recordingmode vector
attr source "packetLength(merge(packetPushedIn, packetPulledIn))"
attr title "incoming packet lengths"
attr unit b
vector 186 UseCase2.Actuator.eth[0].phyLayer.phyHeaderInserter outgoingPacketLengths:vector ETV
attr interpolationmode none
attr recordingmode vector
attr source "packetLength(merge(packetPushedOut, packetPulledOut))"
attr title "outgoing packet lengths"
attr unit b
vector 187 UseCase2.Actuator.eth[0].phyLayer.outboundEmitter incomingPacketLengths:vector ETV
attr interpolationmode none
attr recordingmode vector
attr source "packetLength(merge(packetPushedIn, packetPulledIn))"
attr title "incoming packet lengths"
attr unit b
vector 188 UseCase2.Actuator.eth[0].phyLayer.outboundEmitter outgoingPacketLengths:vector ETV
attr interpolationmode none
attr recordingmode vector
attr source "packetLength(merge(packetPushedOut, packetPulledOut))"
attr title "outgoing packet lengths"
attr unit b
vector 189 UseCase2.Sensor.eth[0].macLayer.queue queueingTime:vector ETV
attr interpolationmode none
attr recordingmode vector
attr source queueingTime(packetPulled)
attr title "queueing times"
attr unit s
vector 190 UseCase2.Sensor.eth[0].macLayer.queue outgoingPacketLengths:vector ETV
attr interpolationmode none
attr recordingmode vector
attr source packetLength(packetPulled)
attr title "outgoing packet lengths"
attr unit b
vector 191 UseCase2.Sensor.eth[0].macLayer.server incomingPacketLengths:vector ETV
attr interpolationmode none
attr recordingmode vector
attr source packetLength(packetPulled)
attr title "incoming packet lengths"
attr unit b
vector 192 UseCase2.Sensor.eth[0].macLayer.server outgoingPacketLengths:vector ETV
attr interpolationmode none
attr recordingmode vector
attr source packetLength(packetPushed)
attr title "outgoing packet lengths"
attr unit b
vector 193 UseCase2.Sensor.eth[0].macLayer.outboundEmitter incomingPacketLengths:vector ETV
attr interpolationmode none
attr recordingmode vector
attr source "packetLength(merge(packetPushedIn, packetPulledIn))"
attr title "incoming packet lengths"
attr unit b
vector 194 UseCase2.Sensor.eth[0].macLayer.outboundEmitter outgoingPacketLengths:vector ETV
attr interpolationmode none
attr recordingmode vector
attr source "packetLength(merge(packetPushedOut, packetPulledOut))"
attr title "outgoing packet lengths"
attr unit b
vector 195 UseCase2.Sensor.eth[0].phyLayer.phyHeaderInserter incomingPacketLengths:vector ETV
attr interpolationmode none
attr recordingmode vector
attr source "packetLength(merge(packetPushedIn, packetPulledIn))"
attr title "incoming packet lengths"
attr unit b
vector 196 UseCase2.Sensor.eth[0].phyLayer.phyHeaderInserter outgoingPacketLengths:vector ETV
attr interpolationmode none
attr recordingmode vector
attr source "packetLength(merge(packetPushedOut, packetPulledOut))"
attr title "outgoing packet lengths"
attr unit b
vector 197 UseCase2.Sensor.eth[0].phyLayer.outboundEmitter incomingPacketLengths:vector ETV
attr interpolationmode none
attr recordingmode vector
attr source "packetLength(merge(packetPushedIn, packetPulledIn))"
attr title "incoming packet lengths"
attr unit b
vector 198 UseCase2.Sensor.eth[0].phyLayer.outboundEmitter outgoingPacketLengths:vector ETV
attr interpolationmode none
attr recordingmode vector
attr source "packetLength(merge(packetPushedOut, packetPulledOut))"
attr title "outgoing packet lengths"
attr unit b
vector 199 UseCase2.switchTSN2.eth[0].macLayer.queue queueingTime:vector ETV
attr interpolationmode none
attr recordingmode vector
attr source queueingTime(packetPulled)
attr title "queueing times"
attr unit s
vector 200 UseCase2.switchTSN2.eth[0].macLayer.queue outgoingPacketLengths:vector ETV
attr interpolationmode none
attr recordingmode vector
attr source packetLength(packetPulled)
attr title "outgoing packet lengths"
attr unit b
vector 201 UseCase2.switchTSN2.eth[0].macLayer.server incomingPacketLengths:vector ETV
attr interpolationmode none
attr recordingmode vector
attr source packetLength(packetPulled)
attr title "incoming packet lengths"
attr unit b
vector 202 UseCase2.switchTSN2.eth[0].macLayer.server outgoingPacketLengths:vector ETV
attr interpolationmode none
attr recordingmode vector
attr source packetLength(packetPushed)
attr title "outgoing packet lengths"
attr unit b
vector 203 UseCase2.switchTSN2.eth[0].macLayer.outboundEmitter incomingPacketLengths:vector ETV
attr interpolationmode none
attr recordingmode vector
attr source "packetLength(merge(packetPushedIn, packetPulledIn))"
attr title "incoming packet lengths"
attr unit b
vector 204 UseCase2.switchTSN2.eth[0].macLayer.outboundEmitter outgoingPacketLengths:vector ETV
attr interpolationmode none
attr recordingmode vector
attr source "packetLength(merge(packetPushedOut, packetPulledOut))"
attr title "outgoing packet lengths"
attr unit b
vector 205 UseCase2.switchTSN2.eth[0].phyLayer.phyHeaderInserter incomingPacketLengths:vector ETV
attr interpolationmode none
attr recordingmode vector
attr source "packetLength(merge(packetPushedIn, packetPulledIn))"
attr title "incoming packet lengths"
attr unit b
vector 206 UseCase2.switchTSN2.eth[0].phyLayer.phyHeaderInserter outgoingPacketLengths:vector ETV
attr interpolationmode none
attr recordingmode vector
attr source "packetLength(merge(packetPushedOut, packetPulledOut))"
attr title "outgoing packet lengths"
attr unit b
vector 207 UseCase2.switchTSN2.eth[0].phyLayer.outboundEmitter incomingPacketLengths:vector ETV
attr interpolationmode none
attr recordingmode vector
attr source "packetLength(merge(packetPushedIn, packetPulledIn))"
attr title "incoming packet lengths"
attr unit b
vector 208 UseCase2.switchTSN2.eth[0].phyLayer.outboundEmitter outgoingPacketLengths:vector ETV
attr interpolationmode none
attr recordingmode vector
attr source "packetLength(merge(packetPushedOut, packetPulledOut))"
attr title "outgoing packet lengths"
attr unit b
vector 209 UseCase2.Actuator2.eth[0].macLayer.queue queueingTime:vector ETV
attr interpolationmode none
attr recordingmode vector
attr source queueingTime(packetPulled)
attr title "queueing times"
attr unit s
vector 210 UseCase2.Actuator2.eth[0].macLayer.queue outgoingPacketLengths:vector ETV
attr interpolationmode none
attr recordingmode vector
attr source packetLength(packetPulled)
attr title "outgoing packet lengths"
attr unit b
vector 211 UseCase2.Actuator2.eth[0].macLayer.server incomingPacketLengths:vector ETV
attr interpolationmode none
attr recordingmode vector
attr source packetLength(packetPulled)
attr title "incoming packet lengths"
attr unit b
vector 212 UseCase2.Actuator2.eth[0].macLayer.server outgoingPacketLengths:vector ETV
attr interpolationmode none
attr recordingmode vector
attr source packetLength(packetPushed)
attr title "outgoing packet lengths"
attr unit b
vector 213 UseCase2.Actuator2.eth[0].macLayer.outboundEmitter incomingPacketLengths:vector ETV
attr interpolationmode none
attr recordingmode vector
attr source "packetLength(merge(packetPushedIn, packetPulledIn))"
attr title "incoming packet lengths"
attr unit b
vector 214 UseCase2.Actuator2.eth[0].macLayer.outboundEmitter outgoingPacketLengths:vector ETV
attr interpolationmode none
attr recordingmode vector
attr source "packetLength(merge(packetPushedOut, packetPulledOut))"
attr title "outgoing packet lengths"
attr unit b
vector 215 UseCase2.Actuator2.eth[0].phyLayer.phyHeaderInserter incomingPacketLengths:vector ETV
attr interpolationmode none
attr recordingmode vector
attr source "packetLength(merge(packetPushedIn, packetPulledIn))"
attr title "incoming packet lengths"
attr unit b
vector 216 UseCase2.Actuator2.eth[0].phyLayer.phyHeaderInserter outgoingPacketLengths:vector ETV
attr interpolationmode none
attr recordingmode vector
attr source "packetLength(merge(packetPushedOut, packetPulledOut))"
attr title "outgoing packet lengths"
attr unit b
vector 217 UseCase2.Actuator2.eth[0].phyLayer.outboundEmitter incomingPacketLengths:vector ETV
attr interpolationmode none
attr recordingmode vector
attr source "packetLength(merge(packetPushedIn, packetPulledIn))"
attr title "incoming packet lengths"
attr unit b
vector 218 UseCase2.Actuator2.eth[0].phyLayer.outboundEmitter outgoingPacketLengths:vector ETV
attr interpolationmode none
attr recordingmode vector
attr source "packetLength(merge(packetPushedOut, packetPulledOut))"
attr title "outgoing packet lengths"
attr unit b
vector 219 UseCase2.Actuator.eth[0].phyLayer.transmitter transmissionTime:vector ETV
attr interpolationmode none
attr recordingmode vector
attr source packetDuration(transmissionEnded)
attr title "transmission time"
attr unit s
vector 220 UseCase2.Sensor.eth[0].phyLayer.transmitter transmissionTime:vector ETV
attr interpolationmode none
attr recordingmode vector
attr source packetDuration(transmissionEnded)
attr title "transmission time"
attr unit s
vector 221 UseCase2.switchTSN2.eth[0].phyLayer.transmitter transmissionTime:vector ETV
attr interpolationmode none
attr recordingmode vector
attr source packetDuration(transmissionEnded)
attr title "transmission time"
attr unit s
vector 222 UseCase2.Actuator2.eth[0].phyLayer.transmitter transmissionTime:vector ETV
attr interpolationmode none
attr recordingmode vector
attr source packetDuration(transmissionEnded)
attr title "transmission time"
attr unit s
vector 223 UseCase2.switchTSN.eth[2].phyLayer.receiver receptionTime:vector ETV
attr interpolationmode none
attr recordingmode vector
attr source packetDuration(receptionEnded)
attr title "reception time"
attr unit s
vector 224 UseCase2.switchTSN.eth[2].phyLayer.inboundEmitter incomingPacketLengths:vector ETV
attr interpolationmode none
attr recordingmode vector
attr source "packetLength(merge(packetPushedIn, packetPulledIn))"
attr title "incoming packet lengths"
attr unit b
vector 225 UseCase2.switchTSN.eth[2].phyLayer.inboundEmitter outgoingPacketLengths:vector ETV
attr interpolationmode none
attr recordingmode vector
attr source "packetLength(merge(packetPushedOut, packetPulledOut))"
attr title "outgoing packet lengths"
attr unit b
vector 226 UseCase2.switchTSN.eth[2].phyLayer.phyHeaderChecker incomingPacketLengths:vector ETV
attr interpolationmode none
attr recordingmode vector
attr source "packetLength(merge(packetPushedIn, packetPulledIn))"
attr title "incoming packet lengths"
attr unit b
vector 227 UseCase2.switchTSN.eth[2].phyLayer.phyHeaderChecker outgoingPacketLengths:vector ETV
attr interpolationmode none
attr recordingmode vector
attr source "packetLength(merge(packetPushedOut, packetPulledOut))"
attr title "outgoing packet lengths"
attr unit b
vector 228 UseCase2.switchTSN.eth[2].macLayer.inboundEmitter incomingPacketLengths:vector ETV
attr interpolationmode none
attr recordingmode vector
attr source "packetLength(merge(packetPushedIn, packetPulledIn))"
attr title "incoming packet lengths"
attr unit b
vector 229 UseCase2.switchTSN.eth[2].macLayer.inboundEmitter outgoingPacketLengths:vector ETV
attr interpolationmode none
attr recordingmode vector
attr source "packetLength(merge(packetPushedOut, packetPulledOut))"
attr title "outgoing packet lengths"
attr unit b
vector 230 UseCase2.switchTSN.eth[2].macLayer.fcsChecker incomingPacketLengths:vector ETV
attr interpolationmode none
attr recordingmode vector
attr source "packetLength(merge(packetPushedIn, packetPulledIn))"
attr title "incoming packet lengths"
attr unit b
vector 231 UseCase2.switchTSN.eth[2].macLayer.fcsChecker outgoingPacketLengths:vector ETV
attr interpolationmode none
attr recordingmode vector
attr source "packetLength(merge(packetPushedOut, packetPulledOut))"
attr title "outgoing packet lengths"
attr unit b
vector 232 UseCase2.switchTSN.ethernet.fcsChecker incomingPacketLengths:vector ETV
attr interpolationmode none
attr recordingmode vector
attr source "packetLength(merge(packetPushedIn, packetPulledIn))"
attr title "incoming packet lengths"
attr unit b
vector 233 UseCase2.switchTSN.ethernet.fcsChecker outgoingPacketLengths:vector ETV
attr interpolationmode none
attr recordingmode vector
attr source "packetLength(merge(packetPushedOut, packetPulledOut))"
attr title "outgoing packet lengths"
attr unit b
vector 234 UseCase2.switchTSN.ethernet.macHeaderChecker incomingPacketLengths:vector ETV
attr interpolationmode none
attr recordingmode vector
attr source "packetLength(merge(packetPushedIn, packetPulledIn))"
attr title "incoming packet lengths"
attr unit b
vector 235 UseCase2.switchTSN.ethernet.macHeaderChecker outgoingPacketLengths:vector ETV
attr interpolationmode none
attr recordingmode vector
attr source "packetLength(merge(packetPushedOut, packetPulledOut))"
attr title "outgoing packet lengths"
attr unit b
vector 236 UseCase2.switchTSN.bridging.interfaceRelay.learner incomingPacketLengths:vector ETV
attr interpolationmode none
attr recordingmode vector
attr source "packetLength(merge(packetPushedIn, packetPulledIn))"
attr title "incoming packet lengths"
attr unit b
vector 237 UseCase2.switchTSN.bridging.interfaceRelay.learner outgoingPacketLengths:vector ETV
attr interpolationmode none
attr recordingmode vector
attr source "packetLength(merge(packetPushedOut, packetPulledOut))"
attr title "outgoing packet lengths"
attr unit b
vector 238 UseCase2.switchTSN.eth[1].phyLayer.receiver receptionTime:vector ETV
attr interpolationmode none
attr recordingmode vector
attr source packetDuration(receptionEnded)
attr title "reception time"
attr unit s
vector 239 UseCase2.switchTSN.eth[1].phyLayer.inboundEmitter incomingPacketLengths:vector ETV
attr interpolationmode none
attr recordingmode vector
attr source "packetLength(merge(packetPushedIn, packetPulledIn))"
attr title "incoming packet lengths"
attr unit b
vector 240 UseCase2.switchTSN.eth[1].phyLayer.inboundEmitter outgoingPacketLengths:vector ETV
attr interpolationmode none
attr recordingmode vector
attr source "packetLength(merge(packetPushedOut, packetPulledOut))"
attr title "outgoing packet lengths"
attr unit b
vector 241 UseCase2.switchTSN.eth[1].phyLayer.phyHeaderChecker incomingPacketLengths:vector ETV
attr interpolationmode none
attr recordingmode vector
attr source "packetLength(merge(packetPushedIn, packetPulledIn))"
attr title "incoming packet lengths"
attr unit b
vector 242 UseCase2.switchTSN.eth[1].phyLayer.phyHeaderChecker outgoingPacketLengths:vector ETV
attr interpolationmode none
attr recordingmode vector
attr source "packetLength(merge(packetPushedOut, packetPulledOut))"
attr title "outgoing packet lengths"
attr unit b
vector 243 UseCase2.switchTSN.eth[1].macLayer.inboundEmitter incomingPacketLengths:vector ETV
attr interpolationmode none
attr recordingmode vector
attr source "packetLength(merge(packetPushedIn, packetPulledIn))"
attr title "incoming packet lengths"
attr unit b
vector 244 UseCase2.switchTSN.eth[1].macLayer.inboundEmitter outgoingPacketLengths:vector ETV
attr interpolationmode none
attr recordingmode vector
attr source "packetLength(merge(packetPushedOut, packetPulledOut))"
attr title "outgoing packet lengths"
attr unit b
vector 245 UseCase2.switchTSN.eth[1].macLayer.fcsChecker incomingPacketLengths:vector ETV
attr interpolationmode none
attr recordingmode vector
attr source "packetLength(merge(packetPushedIn, packetPulledIn))"
attr title "incoming packet lengths"
attr unit b
vector 246 UseCase2.switchTSN.eth[1].macLayer.fcsChecker outgoingPacketLengths:vector ETV
attr interpolationmode none
attr recordingmode vector
attr source "packetLength(merge(packetPushedOut, packetPulledOut))"
attr title "outgoing packet lengths"
attr unit b
vector 247 UseCase2.DSTT2.eth[1].mac rxPkOk:vector(packetBytes) ETV
attr interpolationmode none
attr recordingmode vector(packetBytes)
attr source rxPkOk
attr title "packets received OK, packetBytes"
vector 248 UseCase2.DSTT2.eth[1].mac passedUpPk:vector(packetBytes) ETV
attr interpolationmode none
attr recordingmode vector(packetBytes)
attr source packetSentToUpper
attr title "packets passed to higher layer, packetBytes"
vector 249 UseCase2.switchTSN2.eth[1].phyLayer.receiver receptionTime:vector ETV
attr interpolationmode none
attr recordingmode vector
attr source packetDuration(receptionEnded)
attr title "reception time"
attr unit s
vector 250 UseCase2.switchTSN2.eth[1].phyLayer.inboundEmitter incomingPacketLengths:vector ETV
attr interpolationmode none
attr recordingmode vector
attr source "packetLength(merge(packetPushedIn, packetPulledIn))"
attr title "incoming packet lengths"
attr unit b
vector 251 UseCase2.switchTSN2.eth[1].phyLayer.inboundEmitter outgoingPacketLengths:vector ETV
attr interpolationmode none
attr recordingmode vector
attr source "packetLength(merge(packetPushedOut, packetPulledOut))"
attr title "outgoing packet lengths"
attr unit b
vector 252 UseCase2.switchTSN2.eth[1].phyLayer.phyHeaderChecker incomingPacketLengths:vector ETV
attr interpolationmode none
attr recordingmode vector
attr source "packetLength(merge(packetPushedIn, packetPulledIn))"
attr title "incoming packet lengths"
attr unit b
vector 253 UseCase2.switchTSN2.eth[1].phyLayer.phyHeaderChecker outgoingPacketLengths:vector ETV
attr interpolationmode none
attr recordingmode vector
attr source "packetLength(merge(packetPushedOut, packetPulledOut))"
attr title "outgoing packet lengths"
attr unit b
vector 254 UseCase2.switchTSN2.eth[1].macLayer.inboundEmitter incomingPacketLengths:vector ETV
attr interpolationmode none
attr recordingmode vector
attr source "packetLength(merge(packetPushedIn, packetPulledIn))"
attr title "incoming packet lengths"
attr unit b
vector 255 UseCase2.switchTSN2.eth[1].macLayer.inboundEmitter outgoingPacketLengths:vector ETV
attr interpolationmode none
attr recordingmode vector
attr source "packetLength(merge(packetPushedOut, packetPulledOut))"
attr title "outgoing packet lengths"
attr unit b
vector 256 UseCase2.switchTSN2.eth[1].macLayer.fcsChecker incomingPacketLengths:vector ETV
attr interpolationmode none
attr recordingmode vector
attr source "packetLength(merge(packetPushedIn, packetPulledIn))"
attr title "incoming packet lengths"
attr unit b
vector 257 UseCase2.switchTSN2.eth[1].macLayer.fcsChecker outgoingPacketLengths:vector ETV
attr interpolationmode none
attr recordingmode vector
attr source "packetLength(merge(packetPushedOut, packetPulledOut))"
attr title "outgoing packet lengths"
attr unit b
vector 258 UseCase2.switchTSN2.ethernet.fcsChecker incomingPacketLengths:vector ETV
attr interpolationmode none
attr recordingmode vector
attr source "packetLength(merge(packetPushedIn, packetPulledIn))"
attr title "incoming packet lengths"
attr unit b
vector 259 UseCase2.switchTSN2.ethernet.fcsChecker outgoingPacketLengths:vector ETV
attr interpolationmode none
attr recordingmode vector
attr source "packetLength(merge(packetPushedOut, packetPulledOut))"
attr title "outgoing packet lengths"
attr unit b
vector 260 UseCase2.switchTSN2.ethernet.macHeaderChecker incomingPacketLengths:vector ETV
attr interpolationmode none
attr recordingmode vector
attr source "packetLength(merge(packetPushedIn, packetPulledIn))"
attr title "incoming packet lengths"
attr unit b
vector 261 UseCase2.switchTSN2.ethernet.macHeaderChecker outgoingPacketLengths:vector ETV
attr interpolationmode none
attr recordingmode vector
attr source "packetLength(merge(packetPushedOut, packetPulledOut))"
attr title "outgoing packet lengths"
attr unit b
vector 262 UseCase2.switchTSN2.bridging.interfaceRelay.learner incomingPacketLengths:vector ETV
attr interpolationmode none
attr recordingmode vector
attr source "packetLength(merge(packetPushedIn, packetPulledIn))"
attr title "incoming packet lengths"
attr unit b
vector 263 UseCase2.switchTSN2.bridging.interfaceRelay.learner outgoingPacketLengths:vector ETV
attr interpolationmode none
attr recordingmode vector
attr source "packetLength(merge(packetPushedOut, packetPulledOut))"
attr title "outgoing packet lengths"
attr unit b
vector 264 UseCase2.DSTT2.ethernet decapPk:vector(packetBytes) ETV
attr interpolationmode none
attr recordingmode vector(packetBytes)
attr source decapPk
attr title "packets decapsulated, packetBytes"
vector 265 UseCase2.DSTT2.udp packetSent:vector(packetBytes) ETV
attr interpolationmode none
attr recordingmode vector(packetBytes)
attr source packetSent
attr title "packets sent, packetBytes"
vector 266 UseCase2.DSTT2.ethernet encapPk:vector(packetBytes) ETV
attr interpolationmode none
attr recordingmode vector(packetBytes)
attr source encapPk
attr title "packets encapsulated, packetBytes"
vector 267 UseCase2.DSTT2.eth[0].queue incomingPacketLengths:vector ETV
attr interpolationmode none
attr recordingmode vector
attr source packetLength(packetPushStarted)
attr title "incoming packet lengths"
attr unit b
vector 268 UseCase2.DSTT2.eth[0].queue queueingTime:vector ETV
attr interpolationmode none
attr recordingmode vector
attr source queueingTime(packetPulled)
attr title "queueing times"
attr unit s
vector 269 UseCase2.DSTT2.eth[0].queue outgoingPacketLengths:vector ETV
attr interpolationmode none
attr recordingmode vector
attr source packetLength(packetPulled)
attr title "outgoing packet lengths"
attr unit b
vector 270 UseCase2.DSTT2.eth[0].mac packetReceivedFromUpper:vector(packetBytes) ETV
attr interpolationmode none
attr recordingmode vector(packetBytes)
attr source packetReceivedFromUpper
attr title "packet bytes from higher layer, packetBytes"
vector 271 UseCase2.DSTT2.eth[0].mac txPk:vector(packetBytes) ETV
attr interpolationmode none
attr recordingmode vector(packetBytes)
attr source packetSentToLower
attr title "packets transmitted, packetBytes"
vector 272 UseCase2.ue2.eth[0].mac rxPkOk:vector(packetBytes) ETV
attr interpolationmode none
attr recordingmode vector(packetBytes)
attr source rxPkOk
attr title "packets received OK, packetBytes"
vector 273 UseCase2.ue2.eth[0].mac passedUpPk:vector(packetBytes) ETV
attr interpolationmode none
attr recordingmode vector(packetBytes)
attr source packetSentToUpper
attr title "packets passed to higher layer, packetBytes"
vector 274 UseCase2.ue2.encap decapPk:vector(packetBytes) ETV
attr interpolationmode none
attr recordingmode vector(packetBytes)
attr source decapPk
attr title "packets decapsulated, packetBytes"
vector 275 UseCase2.ue2.cellularNic.pdcpRrc receivedPacketFromUpperLayer:vector(packetBytes) ETV
attr interpolationmode none
attr recordingmode vector(packetBytes)
attr source receivedPacketFromUpperLayer
vector 276 UseCase2.ue2.cellularNic.pdcpRrc sentPacketToLowerLayer:vector(packetBytes) ETV
attr interpolationmode none
attr recordingmode vector(packetBytes)
attr source sentPacketToLowerLayer
vector 277 UseCase2.ue2.cellularNic.nrRlc.um receivedPacketFromUpperLayer:vector(packetBytes) ETV
attr interpolationmode none
attr recordingmode vector(packetBytes)
attr source receivedPacketFromUpperLayer
vector 278 UseCase2.ue2.cellularNic.nrMac receivedPacketFromUpperLayer:vector(packetBytes) ETV
attr interpolationmode none
attr recordingmode vector(packetBytes)
attr source receivedPacketFromUpperLayer
vector 279 UseCase2.switchTSN2.eth[1].macLayer.queue incomingPacketLengths:vector ETV
attr interpolationmode none
attr recordingmode vector
attr source packetLength(packetPushStarted)
attr title "incoming packet lengths"
attr unit b
vector 280 UseCase2.switchTSN2.eth[1].macLayer.queue queueingTime:vector ETV
attr interpolationmode none
attr recordingmode vector
attr source queueingTime(packetPulled)
attr title "queueing times"
attr unit s
vector 281 UseCase2.switchTSN2.eth[1].macLayer.queue outgoingPacketLengths:vector ETV
attr interpolationmode none
attr recordingmode vector
attr source packetLength(packetPulled)
attr title "outgoing packet lengths"
attr unit b
vector 282 UseCase2.switchTSN2.eth[1].macLayer.server incomingPacketLengths:vector ETV
attr interpolationmode none
attr recordingmode vector
attr source packetLength(packetPulled)
attr title "incoming packet lengths"
attr unit b
vector 283 UseCase2.switchTSN2.eth[1].macLayer.server outgoingPacketLengths:vector ETV
attr interpolationmode none
attr recordingmode vector
attr source packetLength(packetPushed)
attr title "outgoing packet lengths"
attr unit b
vector 284 UseCase2.switchTSN2.eth[1].macLayer.outboundEmitter incomingPacketLengths:vector ETV
attr interpolationmode none
attr recordingmode vector
attr source "packetLength(merge(packetPushedIn, packetPulledIn))"
attr title "incoming packet lengths"
attr unit b
vector 285 UseCase2.switchTSN2.eth[1].macLayer.outboundEmitter outgoingPacketLengths:vector ETV
attr interpolationmode none
attr recordingmode vector
attr source "packetLength(merge(packetPushedOut, packetPulledOut))"
attr title "outgoing packet lengths"
attr unit b
vector 286 UseCase2.switchTSN2.eth[1].phyLayer.phyHeaderInserter incomingPacketLengths:vector ETV
attr interpolationmode none
attr recordingmode vector
attr source "packetLength(merge(packetPushedIn, packetPulledIn))"
attr title "incoming packet lengths"
attr unit b
vector 287 UseCase2.switchTSN2.eth[1].phyLayer.phyHeaderInserter outgoingPacketLengths:vector ETV
attr interpolationmode none
attr recordingmode vector
attr source "packetLength(merge(packetPushedOut, packetPulledOut))"
attr title "outgoing packet lengths"
attr unit b
vector 288 UseCase2.switchTSN2.eth[1].phyLayer.outboundEmitter incomingPacketLengths:vector ETV
attr interpolationmode none
attr recordingmode vector
attr source "packetLength(merge(packetPushedIn, packetPulledIn))"
attr title "incoming packet lengths"
attr unit b
vector 289 UseCase2.switchTSN2.eth[1].phyLayer.outboundEmitter outgoingPacketLengths:vector ETV
attr interpolationmode none
attr recordingmode vector
attr source "packetLength(merge(packetPushedOut, packetPulledOut))"
attr title "outgoing packet lengths"
attr unit b
vector 290 UseCase2.switchTSN.ethernet.macHeaderInserter incomingPacketLengths:vector ETV
attr interpolationmode none
attr recordingmode vector
attr source "packetLength(merge(packetPushedIn, packetPulledIn))"
attr title "incoming packet lengths"
attr unit b
vector 291 UseCase2.switchTSN.ethernet.macHeaderInserter outgoingPacketLengths:vector ETV
attr interpolationmode none
attr recordingmode vector
attr source "packetLength(merge(packetPushedOut, packetPulledOut))"
attr title "outgoing packet lengths"
attr unit b
vector 292 UseCase2.switchTSN.ethernet.paddingInserter incomingPacketLengths:vector ETV
attr interpolationmode none
attr recordingmode vector
attr source "packetLength(merge(packetPushedIn, packetPulledIn))"
attr title "incoming packet lengths"
attr unit b
vector 293 UseCase2.switchTSN.ethernet.paddingInserter outgoingPacketLengths:vector ETV
attr interpolationmode none
attr recordingmode vector
attr source "packetLength(merge(packetPushedOut, packetPulledOut))"
attr title "outgoing packet lengths"
attr unit b
vector 294 UseCase2.switchTSN.ethernet.fcsInserter incomingPacketLengths:vector ETV
attr interpolationmode none
attr recordingmode vector
attr source "packetLength(merge(packetPushedIn, packetPulledIn))"
attr title "incoming packet lengths"
attr unit b
vector 295 UseCase2.switchTSN.ethernet.fcsInserter outgoingPacketLengths:vector ETV
attr interpolationmode none
attr recordingmode vector
attr source "packetLength(merge(packetPushedOut, packetPulledOut))"
attr title "outgoing packet lengths"
attr unit b
vector 296 UseCase2.switchTSN.eth[2].macLayer.queue incomingPacketLengths:vector ETV
attr interpolationmode none
attr recordingmode vector
attr source packetLength(packetPushStarted)
attr title "incoming packet lengths"
attr unit b
vector 297 UseCase2.switchTSN.eth[1].macLayer.queue incomingPacketLengths:vector ETV
attr interpolationmode none
attr recordingmode vector
attr source packetLength(packetPushStarted)
attr title "incoming packet lengths"
attr unit b
vector 298 UseCase2.switchTSN.eth[2].macLayer.queue queueingTime:vector ETV
attr interpolationmode none
attr recordingmode vector
attr source queueingTime(packetPulled)
attr title "queueing times"
attr unit s
vector 299 UseCase2.switchTSN.eth[2].macLayer.queue outgoingPacketLengths:vector ETV
attr interpolationmode none
attr recordingmode vector
attr source packetLength(packetPulled)
attr title "outgoing packet lengths"
attr unit b
vector 300 UseCase2.switchTSN.eth[2].macLayer.server incomingPacketLengths:vector ETV
attr interpolationmode none
attr recordingmode vector
attr source packetLength(packetPulled)
attr title "incoming packet lengths"
attr unit b
vector 301 UseCase2.switchTSN.eth[2].macLayer.server outgoingPacketLengths:vector ETV
attr interpolationmode none
attr recordingmode vector
attr source packetLength(packetPushed)
attr title "outgoing packet lengths"
attr unit b
vector 302 UseCase2.switchTSN.eth[2].macLayer.outboundEmitter incomingPacketLengths:vector ETV
attr interpolationmode none
attr recordingmode vector
attr source "packetLength(merge(packetPushedIn, packetPulledIn))"
attr title "incoming packet lengths"
attr unit b
vector 303 UseCase2.switchTSN.eth[2].macLayer.outboundEmitter outgoingPacketLengths:vector ETV
attr interpolationmode none
attr recordingmode vector
attr source "packetLength(merge(packetPushedOut, packetPulledOut))"
attr title "outgoing packet lengths"
attr unit b
vector 304 UseCase2.switchTSN.eth[2].phyLayer.phyHeaderInserter incomingPacketLengths:vector ETV
attr interpolationmode none
attr recordingmode vector
attr source "packetLength(merge(packetPushedIn, packetPulledIn))"
attr title "incoming packet lengths"
attr unit b
vector 305 UseCase2.switchTSN.eth[2].phyLayer.phyHeaderInserter outgoingPacketLengths:vector ETV
attr interpolationmode none
attr recordingmode vector
attr source "packetLength(merge(packetPushedOut, packetPulledOut))"
attr title "outgoing packet lengths"
attr unit b
vector 306 UseCase2.switchTSN.eth[2].phyLayer.outboundEmitter incomingPacketLengths:vector ETV
attr interpolationmode none
attr recordingmode vector
attr source "packetLength(merge(packetPushedIn, packetPulledIn))"
attr title "incoming packet lengths"
attr unit b
[...]
632	5762854 3867 71826 253168 5.130001168 18.130001168 131 -611.36142409848 58560 2931388.6385759 89417768962.791
633	5766721 3867 71826 253168 5.130001168 18.130001168 131 -611.36142409848 58560 2931388.6385759 89417768962.791
634	5770588 4220 71827 253169 5.130001906 18.130001906 131 0 0.004416 0.223392 0.000513869824
635	5774808 3867 71839 253181 5.130002496 18.130002496 131 -611.36142826478 58560 2931388.6385717 89417768962.796
636	5778675 3815 71845 253187 5.130002546 18.130002546 131 -356.8327649638 33760 1711483.167235 30295909729.622
637	5782490 3816 71845 253187 5.130002546 18.130002546 131 -414.30697929299 39360 1986945.6930207 40910686850.273
638	5786306 3816 71845 253187 5.130002546 18.130002546 131 -414.30697929299 39360 1986945.6930207 40910686850.273
639	5790122 3816 71845 253187 5.130002546 18.130002546 131 -414.30697929299 39360 1986945.6930207 40910686850.273
640	5793938 3816 71845 253187 5.130002546 18.130002546 131 -414.30697929299 39360 1986945.6930207 40910686850.273
641	5797754 3816 71845 253187 5.130002546 18.130002546 131 -430.72818338705 40960 2065649.2718166 44236550326.768
642	5801570 3816 71845 253187 5.130002546 18.130002546 131 -430.72818338705 40960 2065649.2718166 44236550326.768
643	5805386 3816 71846 253188 5.130002546 18.130002546 131 -430.72818338705 40960 2065649.2718166 44236550326.768
644	5809202 3816 71846 253188 5.130002546 18.130002546 131 -430.72818338705 40960 2065649.2718166 44236550326.768
645	5813018 3816 71846 253188 5.130002546 18.130002546 131 -430.72818338705 40960 2065649.2718166 44236550326.768
646	5816834 3816 71846 253188 5.130002546 18.130002546 131 -430.72818338705 40960 2065649.2718166 44236550326.768
647	5820650 3816 71846 253188 5.130002546 18.130002546 131 -430.72818338705 40960 2065649.2718166 44236550326.768
648	5824466 3816 71846 253188 5.130002546 18.130002546 131 -430.72818338705 40960 2065649.2718166 44236550326.768
649	5828282 3841 71846 253188 5.130002546 18.130002546 131 -463.57059157516 44160 2223056.4294084 51279037297.693
650	5832123 3841 71846 253188 5.130002546 18.130002546 131 -463.57059157516 44160 2223056.4294084 51279037297.693
651	5835964 3841 71846 253188 5.130002546 18.130002546 131 -463.57059157516 44160 2223056.4294084 51279037297.693
652	5839805 4089 71849 253191 5.13000274 18.13000274 131 0 0.004416 0.223392 0.000513869824
653	5843894 3841 71858 253200 5.130003586 18.130003586 131 -463.57059404918 44160 2223056.429406 51279037297.696
654	5847735 3816 71867 253209 5.130003636 18.130003636 131 -430.72818579631 40960 2065649.2718142 44236550326.77
655	5851551 3816 71867 253209 5.130003636 18.130003636 131 -430.72818579631 40960 2065649.2718142 44236550326.77
656	5855367 4116 71870 253212 5.130003862 18.130003862 131 0 0.005856 0.294528 0.000895937536
657	5859483 3841 71881 253223 5.130004676 18.130004676 131 -463.57059664215 44160 2223056.4294034 51279037297.698
658	5863324 3840 71882 253224 5.130004726 18.130004726 131 -463.5705967611 44160 2223056.4294032 51279037297.698
659	5867164 3840 71882 253224 5.130004726 18.130004726 131 -463.5705967611 44160 2223056.4294032 51279037297.698
660	5871004 3840 71882 253224 5.130004726 18.130004726 131 -463.5705967611 44160 2223056.4294032 51279037297.698
661	5874844 3840 71882 253224 5.130004726 18.130004726 131 -463.5705967611 44160 2223056.4294032 51279037297.698
662	5878684 3816 71882 253224 5.130004726 18.130004726 131 -430.72818820558 40960 2065649.2718118 44236550326.772
663	5882500 3816 71882 253224 5.130004726 18.130004726 131 -430.72818820558 40960 2065649.2718118 44236550326.772
664	5886316 3816 71882 253224 5.130004726 18.130004726 131 -430.72818820558 40960 2065649.2718118 44236550326.772
665	5890132 3816 71882 253224 5.130004726 18.130004726 131 -430.72818820558 40960 2065649.2718118 44236550326.772
666	5893948 3816 71882 253224 5.130004726 18.130004726 131 -430.72818820558 40960 2065649.2718118 44236550326.772
667	5897764 3816 71882 253224 5.130004726 18.130004726 131 -430.72818820558 40960 2065649.2718118 44236550326.772
668	5901580 3816 71882 253224 5.130004726 18.130004726 131 -414.30698392782 39360 1986945.6930161 40910686850.277
669	5905396 3816 71882 253224 5.130004726 18.130004726 131 -414.30698392782 39360 1986945.6930161 40910686850.277
670	5909212 3816 71882 253224 5.130004726 18.130004726 131 -356.83276895567 33760 1711483.167231 30295909729.625
671	5913028 3866 71888 253230 5.130004726 18.130004726 131 -578.5190267054 55360 2773981.4809733 80030721884.264
672	5916894 3866 71888 253230 5.130004726 18.130004726 131 -578.5190267054 55360 2773981.4809733 80030721884.264
673	5920760 3867 71890 253232 5.130006054 18.130006054 131 -611.36143942722 58560 2931388.6385606 89417768962.81
674	5924627 3867 71891 253233 5.130006104 18.130006104 131 -611.36143958408 58560 2931388.6385604 89417768962.81
675	5928494 3867 71891 253233 5.130006104 18.130006104 131 -611.36143958408 58560 2931388.6385604 89417768962.81
676	5932361 3867 71891 253233 5.130006104 18.130006104 131 -611.36143958408 58560 2931388.6385604 89417768962.81
677	5936228 3867 71891 253233 5.130006104 18.130006104 131 -611.36143958408 58560 2931388.6385604 89417768962.81
678	5940095 3867 71891 253233 5.130006104 18.130006104 131 -578.51903079633 55360 2773981.4809692 80030721884.269
679	5943962 3867 71891 253233 5.130006104 18.130006104 131 -578.51903079633 55360 2773981.4809692 80030721884.269
680	5947829 3867 71891 253233 5.130006104 18.130006104 131 -578.51903079633 55360 2773981.4809692 80030721884.269
681	5951696 3867 71891 253233 5.130006104 18.130006104 131 -578.51903079633 55360 2773981.4809692 80030721884.269
682	5955563 3867 71891 253233 5.130006104 18.130006104 131 -578.51903079633 55360 2773981.4809692 80030721884.269
683	5959430 3867 71891 253233 5.130006104 18.130006104 131 -578.51903079633 55360 2773981.4809692 80030721884.269
684	5963297 3841 71891 253233 5.130006104 18.130006104 131 -562.09782640245 53760 2695277.9021736 75532578353.966
685	5967138 3841 71891 253233 5.130006104 18.130006104 131 -562.09782640245 53760 2695277.9021736 75532578353.966
686	5970979 3841 71891 253233 5.130006104 18.130006104 131 -504.62361102388 48160 2419815.376389 60814821044.989
687	5974820 3816 71962 253302 5.131502836 18.131502836 131 -319.14855866959 29920 1531360.8514413 24118143455.803
688	5978636 3815 71962 253302 5.131502836 18.131502836 131 -302.7272281489 28320 1452657.2727719 21681422843.775
689	5982451 3815 71962 253302 5.131502836 18.131502836 131 -302.7272281489 28320 1452657.2727719 21681422843.775
690	5986266 3751 71962 253302 5.131502836 18.131502836 131 -245.25257132649 22720 1177194.7474287 14178645748.824
691	5990017 3751 71962 253302 5.131502836 18.131502836 131 -245.25257132649 22720 1177194.7474287 14178645748.824
692	5993768 3751 71962 253302 5.131502836 18.131502836 131 -245.25257132649 22720 1177194.7474287 14178645748.824
693	5997519 3751 71968 253308 5.131503412 18.131503412 131 -241.88619928473 22560 1160558.1138007 13853165708.933
694	6001270 3816 71968 253308 5.131503412 18.131503412 131 -299.36085627702 28160 1436020.6391437 21276736016.922
695	6005086 3816 71968 253308 5.131503412 18.131503412 131 -299.36085627702 28160 1436020.6391437 21276736016.922
696	6008902 3816 71968 253308 5.131503412 18.131503412 131 -302.72722904372 28320 1452657.272771 21681422843.775
697	6012718 3816 71968 253308 5.131503412 18.131503412 131 -302.72722904372 28320 1452657.272771 21681422843.775
698	6016534 3816 71968 253308 5.131503412 18.131503412 131 -319.14855961294 29920 1531360.8514404 24118143455.803
699	6020350 4278 76704 252975 5.49994557655 18.09994557655 127 0 0.001392 0.156656 0.000215731456
700	6024628 4200 76705 252976 5.49994557655 18.09994557655 127 0 0.002672 0.156656 0.000262057216
701	6028828 4200 76706 252977 5.49994557655 18.09994557655 127 0 0.002672 0.156656 0.000262057216
702	6033028 3960 76707 252972 5.49994557655 18.09994557655 127 -321.48062984018 12640 1413438.5193702 17702298549.795
703	6036988 3908 76708 252973 5.49994557655 18.09994557655 127 -321.48062984018 24160 1413438.5193702 21488231349.795
704	6040896 3908 76709 252974 5.49994557655 18.09994557655 127 -321.48062984018 24160 1413438.5193702 21488231349.795
705	6044804 3960 76727 252975 5.49994567255 18.09994567255 127 -321.48062999885 12640 1413438.51937 17702298549.795
706	6048764 3960 76727 252975 5.49994567255 18.09994567255 127 -321.48062999885 12640 1413438.51937 17702298549.795
707	6052724 3960 76727 252975 5.49994567255 18.09994567255 127 -321.48062999885 12640 1413438.51937 17702298549.795
708	6056684 3960 76727 252975 5.49994567255 18.09994567255 127 -321.48062999885 12640 1413438.51937 17702298549.795
709	6060644 3960 76727 252975 5.49994567255 18.09994567255 127 -321.48062999885 12640 1413438.51937 17702298549.795
710	6064604 3960 76727 252975 5.49994567255 18.09994567255 127 -321.48062999885 12640 1413438.51937 17702298549.795
711	6068564 3960 76727 252975 5.49994567255 18.09994567255 127 -354.38550512668 13920 1558045.6144949 21506685589.086
712	6072524 3960 76727 252975 5.49994567255 18.09994567255 127 -354.38550512668 13920 1558045.6144949 21506685589.086
713	6076484 3960 76727 252975 5.49994567255 18.09994567255 127 -354.38550512668 13920 1558045.6144949 21506685589.086
714	6080444 3908 76728 252976 5.49994567255 18.09994567255 127 -321.48062999885 24160 1413438.51937 21488231349.795
715	6084352 3908 76728 252976 5.49994567255 18.09994567255 127 -321.48062999885 24160 1413438.51937 21488231349.795
716	6088260 3908 76728 252976 5.49994567255 18.09994567255 127 -321.48062999885 24160 1413438.51937 21488231349.795
717	6092168 3908 76728 252976 5.49994567255 18.09994567255 127 -321.48062999885 24160 1413438.51937 21488231349.795
718	6096076 3908 76728 252976 5.49994567255 18.09994567255 127 -321.48062999885 24160 1413438.51937 21488231349.795
719	6099984 3908 76728 252976 5.49994567255 18.09994567255 127 -321.48062999885 24160 1413438.51937 21488231349.795
720	6103892 3908 76728 252976 5.49994567255 18.09994567255 127 -354.38550512668 26720 1558045.6144949 26139261589.086
721	6107800 3908 76728 252976 5.49994567255 18.09994567255 127 -354.38550512668 26720 1558045.6144949 26139261589.086
722	6111708 3908 76728 252976 5.49994567255 18.09994567255 127 -354.38550512668 26720 1558045.6144949 26139261589.086
723	6115616 3908 76729 252977 5.49994567255 18.09994567255 127 -321.48062999885 24160 1413438.51937 21488231349.795
724	6119524 3908 76729 252977 5.49994567255 18.09994567255 127 -321.48062999885 24160 1413438.51937 21488231349.795
725	6123432 3908 76729 252977 5.49994567255 18.09994567255 127 -321.48062999885 24160 1413438.51937 21488231349.795
726	6127340 3908 76729 252977 5.49994567255 18.09994567255 127 -321.48062999885 24160 1413438.51937 21488231349.795
727	6131248 3908 76729 252977 5.49994567255 18.09994567255 127 -321.48062999885 24160 1413438.51937 21488231349.795
728	6135156 3908 76729 252977 5.49994567255 18.09994567255 127 -321.48062999885 24160 1413438.51937 21488231349.795
729	6139064 3908 76729 252977 5.49994567255 18.09994567255 127 -354.38550512668 26720 1558045.6144949 26139261589.086
730	6142972 3908 76729 252977 5.49994567255 18.09994567255 127 -354.38550512668 26720 1558045.6144949 26139261589.086
731	6146880 3908 76729 252977 5.49994567255 18.09994567255 127 -354.38550512668 26720 1558045.6144949 26139261589.086
732	6150788 4290 76730 252997 5.49994641055 18.09994641055 127 0 0.001824 0.205904 0.000372596992
733	6155078 3960 76739 252978 5.49994648855 18.09994648855 127 -354.38550661346 13920 1558045.6144934 21506685589.087
734	6159038 3908 76740 252979 5.49994648855 18.09994648855 127 -354.38550661346 26720 1558045.6144934 26139261589.087
735	6162946 3908 76741 252980 5.49994648855 18.09994648855 127 -354.38550661346 26720 1558045.6144934 26139261589.087
736	6166854 3908 76744 252988 5.49994653855 18.09994653855 127 -354.38550670456 26720 1558045.6144933 26139261589.087
737	6170762 3908 76744 252988 5.49994653855 18.09994653855 127 -354.38550670456 26720 1558045.6144933 26139261589.087
738	6174670 3908 76744 252988 5.49994653855 18.09994653855 127 -354.38550670456 26720 1558045.6144933 26139261589.087
739	6178578 3908 76744 252988 5.49994653855 18.09994653855 127 -354.38550670456 26720 1558045.6144933 26139261589.087
740	6182486 3908 76744 252988 5.49994653855 18.09994653855 127 -321.48063143023 24160 1413438.5193686 21488231349.796
741	6186394 3908 76744 252988 5.49994653855 18.09994653855 127 -321.48063143023 24160 1413438.5193686 21488231349.796
742	6190302 3908 76744 252988 5.49994653855 18.09994653855 127 -321.48063143023 24160 1413438.5193686 21488231349.796
743	6194210 3908 76744 252988 5.49994653855 18.09994653855 127 -321.48063143023 24160 1413438.5193686 21488231349.796
744	6198118 3908 76744 252988 5.49994653855 18.09994653855 127 -321.48063143023 24160 1413438.5193686 21488231349.796
745	6202026 3908 76744 252988 5.49994653855 18.09994653855 127 -321.48063143023 24160 1413438.5193686 21488231349.796
746	6205934 3908 76744 252988 5.49994653855 18.09994653855 127 -305.02819379306 22880 1341134.9718062 19333520242.199
747	6209842 3908 76744 252988 5.49994653855 18.09994653855 127 -305.02819379306 22880 1341134.9718062 19333520242.199
748	6213750 3821 76744 252988 5.49994653855 18.09994653855 127 -247.44466206298 18400 1088072.5553379 12688752428.861
749	6217571 3908 76745 252989 5.49994653855 18.09994653855 127 -354.38550670456 26720 1558045.6144933 26139261589.087
750	6221479 3908 76745 252989 5.49994653855 18.09994653855 127 -354.38550670456 26720 1558045.6144933 26139261589.087
751	6225387 3908 76745 252989 5.49994653855 18.09994653855 127 -354.38550670456 26720 1558045.6144933 26139261589.087
752	6229295 3908 76745 252989 5.49994653855 18.09994653855 127 -354.38550670456 26720 1558045.6144933 26139261589.087
753	6233203 3908 76745 252989 5.49994653855 18.09994653855 127 -321.48063143023 24160 1413438.5193686 21488231349.796
754	6237111 3908 76745 252989 5.49994653855 18.09994653855 127 -321.48063143023 24160 1413438.5193686 21488231349.796
755	6241019 3908 76745 252989 5.49994653855 18.09994653855 127 -321.48063143023 24160 1413438.5193686 21488231349.796
756	6244927 3908 76745 252989 5.49994653855 18.09994653855 127 -321.48063143023 24160 1413438.5193686 21488231349.796
757	6248835 3908 76745 252989 5.49994653855 18.09994653855 127 -321.48063143023 24160 1413438.5193686 21488231349.796
758	6252743 3908 76745 252989 5.49994653855 18.09994653855 127 -321.48063143023 24160 1413438.5193686 21488231349.796
759	6256651 3908 76745 252989 5.49994653855 18.09994653855 127 -305.02819379306 22880 1341134.9718062 19333520242.199
760	6260559 3908 76745 252989 5.49994653855 18.09994653855 127 -305.02819379306 22880 1341134.9718062 19333520242.199
761	6264467 3821 76745 252989 5.49994653855 18.09994653855 127 -247.44466206298 18400 1088072.5553379 12688752428.861
762	6268288 3960 76753 252997 5.49994653855 18.09994653855 127 -433.02815861021 16960 1903566.9718414 32092347513.386
763	6272248 3960 76753 252997 5.49994653855 18.09994653855 127 -433.02815861021 16960 1903566.9718414 32092347513.386
764	6276208 3960 76760 253004 5.49994757855 18.09994757855 127 -465.93303637591 18240 2048174.0669636 37151756293.594
765	6280168 3020 77003 253276 5.5065 18.1065 127 -433.04274950063 32960 1903566.9572505 39147707526.023
766	6283188 4109 77005 253276 5.506500784 18.106500784 127 0 0.002768 0.205904 0.000378554112
767	6287297 3591 77013 253276 5.50650088 18.10650088 127 -433.04275145996 25760 1903566.9572485 32638907526.025
768	6290888 3995 77014 253286 5.50650141 18.10650141 127 0 0.002096 0.156656 0.000219387136
769	6294883 3603 77018 253279 5.50650192 18.10650192 127 -465.94873810498 27680 2048174.0512619 37747468308.227
770	6298486 3591 77025 253286 5.50650197 18.10650197 127 -317.87180870419 19040 1397442.1281913 17687806642.487
771	6302077 3591 77025 253286 5.50650197 18.10650197 127 -317.87180870419 19040 1397442.1281913 17687806642.487
772	6305668 3718 77027 253288 5.506502786 18.106502786 127 -354.39745280614 20960 1558045.6025472 21872253597.555
773	6309386 3718 77028 253289 5.506502836 18.106502836 127 -354.39745289725 20960 1558045.6025471 21872253597.555
774	6313104 3718 77028 253289 5.506502836 18.106502836 127 -354.39745289725 20960 1558045.6025471 21872253597.555
775	6316822 3718 77028 253289 5.506502836 18.106502836 127 -354.39745289725 20960 1558045.6025471 21872253597.555
776	6320540 3718 77028 253289 5.506502836 18.106502836 127 -354.39745289725 20960 1558045.6025471 21872253597.555
777	6324258 3718 77028 253289 5.506502836 18.106502836 127 -321.49146841283 19040 1413438.5085316 18029568956.764
778	6327976 3718 77028 253289 5.506502836 18.106502836 127 -321.49146841283 19040 1413438.5085316 18029568956.764
779	6331694 3718 77028 253289 5.506502836 18.106502836 127 -321.49146841283 19040 1413438.5085316 18029568956.764
780	6335412 3718 77028 253289 5.506502836 18.106502836 127 -321.49146841283 19040 1413438.5085316 18029568956.764
781	6339130 3718 77028 253289 5.506502836 18.106502836 127 -321.49146841283 19040 1413438.5085316 18029568956.764
782	6342848 4122 77033 253305 5.506503412 18.106503412 127 0 0.001856 0.156656 0.000211399936
783	6346970 3718 77034 253304 5.506503412 18.106503412 127 -321.49146936493 16640 1413438.5085306 17310720956.765
784	6350688 3718 77039 253305 5.506503508 18.106503508 127 -321.49146952362 16640 1413438.5085305 17310720956.765
785	6354406 3718 77039 253305 5.506503508 18.106503508 127 -321.49146952362 16640 1413438.5085305 17310720956.765
786	6358124 3718 77039 253305 5.506503508 18.106503508 127 -321.49146952362 16640 1413438.5085305 17310720956.765
787	6361842 3718 77039 253305 5.506503508 18.106503508 127 -321.49146952362 16640 1413438.5085305 17310720956.765
788	6365560 3718 77039 253305 5.506503508 18.106503508 127 -321.49146952362 16640 1413438.5085305 17310720956.765
789	6369278 3718 77039 253305 5.506503508 18.106503508 127 -321.49146952362 16640 1413438.5085305 17310720956.765
790	6372996 3718 77039 253305 5.506503508 18.106503508 127 -354.39745412174 18560 1558045.6025459 21073533597.555
791	6376714 3718 77039 253305 5.506503508 18.106503508 127 -354.39745412174 18560 1558045.6025459 21073533597.555
792	6380432 3718 77039 253305 5.506503508 18.106503508 127 -354.39745412174 18560 1558045.6025459 21073533597.555
793	6384150 3718 77040 253307 5.506504324 18.106504324 127 -354.39745560862 18560 1558045.6025444 21073533597.557
794	6387868 3718 77041 253310 5.506504374 18.106504374 127 -354.39745569973 18560 1558045.6025443 21073533597.557
795	6391586 3718 77041 253310 5.506504374 18.106504374 127 -354.39745569973 18560 1558045.6025443 21073533597.557
796	6395304 3718 77041 253310 5.506504374 18.106504374 127 -354.39745569973 18560 1558045.6025443 21073533597.557
797	6399022 3718 77041 253310 5.506504374 18.106504374 127 -354.39745569973 18560 1558045.6025443 21073533597.557
798	6402740 3718 77041 253310 5.506504374 18.106504374 127 -321.49147095509 16640 1413438.508529 17310720956.766
799	6406458 3718 77041 253310 5.506504374 18.106504374 127 -321.49147095509 16640 1413438.508529 17310720956.766
800	6410176 3718 77041 253310 5.506504374 18.106504374 127 -321.49147095509 16640 1413438.508529 17310720956.766
801	6413894 3718 77041 253310 5.506504374 18.106504374 127 -321.49147095509 16640 1413438.508529 17310720956.766
802	6417612 3718 77041 253310 5.506504374 18.106504374 127 -321.49147095509 16640 1413438.508529 17310720956.766
803	6421330 3718 77041 253310 5.506504374 18.106504374 127 -321.49147095509 16640 1413438.508529 17310720956.766
804	6425048 3718 77041 253310 5.506504374 18.106504374 127 -305.03847858277 15680 1341134.9615214 15568784248.473
805	6428766 3718 77041 253310 5.506504374 18.106504374 127 -305.03847858277 15680 1341134.9615214 15568784248.473
806	6432484 3643 77041 253310 5.506504374 18.106504374 127 -247.45300527966 12320 1088072.5469947 10204221232.99

