file 81150063 1715282491                                        
version 3
run UE-UE-Synchronization-0-20240509-16:19:36-8467
attr configname UE-UE-Synchronization
attr datetime 20240509-16:19:36
attr datetimef 20240509-161936
attr experiment UE-UE-Synchronization
attr inifile omnetpp.ini
attr iterationvars ""
attr iterationvarsd ""
attr iterationvarsf ""
attr measurement ""
attr network UseCase2
attr processid 8467
attr repetition 0
attr replication #0
attr resultdir results
attr runnumber 0
attr seedset 0
config image-path ../../inet/images:../../Simu5G/images
config extends timeSynchronization
config *.DSTT2.clock.typename IdealClock
config *.switch5GC.hasTimeSynchronization false
config *.PLC.hasTimeSynchronization false
config **.hasTimeSynchronization true
config network UseCase2
config *.ue2.macCellId 0
config *.ue2.masterId 0
config *.ue2.nrMacCellId 1
config *.ue2.nrMasterId 1
config *.ue2.intHostAddress "\"Actuator2 DSTT2\""
config **.referenceClock "\"switchTSN.clock\""
config *.switchTSN.clock.oscillator.driftRate 10ppm
config **.oscillator.driftRate "uniform(10ppm, 100ppm)"
config *.switchTSN.gptp.gptpNodeType "\"MASTER_NODE\""
config *.switchTSN.gptp.masterPorts "[\"eth0\",\"eth1\",\"eth2\"]"
config *.switchTSN.gptp.slavePort "\"\""
config *.switchTSN2.gptp.masterPorts "[\"eth1\"]"
config *.switchTSN2.gptp.slavePort "\"eth0\""
config *.NSTT.gptp.TSNPort "\"eth1\""
config *.NSTT.gptp.fiveGPort "\"eth0\""
config *.DSTT.gptp.TSNPort "\"eth1\""
config *.DSTT.gptp.fiveGPort "\"eth0\""
config *.DSTT.gptp.masterDomains [0]
config *.DSTT2.gptp.TSNPort "\"eth1\""
config *.DSTT2.gptp.fiveGPort "\"eth0\""
config *.DSTT2.gptp.slaveDomains [0]
config *.switch5GC.clock.displayStringTextFormat "\"diff: %d\""
config *.switchTSN2.clock.displayStringTextFormat "\"diff: %d\""
config *.switchTSN.clock.displayStringTextFormat "\"time: %T\""
config *.upf.clock.typename IdealClock
config *.*TT.clock.typename IdealClock
config **.clock.oscillator.typename ConstantDriftOscillator
config *.*TT.gptp.typename Gptp5g
config *.*TT.gptp.fiveGPort "\"eth0\""
config *.visualizer.typename IntegratedMultiCanvasVisualizer
config *.visualizer.numInfoVisualizers 1
config *.visualizer.infoVisualizer[0].modules "\"**.clock\""
config *.visualizer.infoVisualizer[0].placementHint "\"bottom\""
config *.PLC.clock.displayStringTextFormat "\"diff: %d\""
config *.Actuato*.clock.displayStringTextFormat "\"diff: %d\""
config *.Sensor.clock.displayStringTextFormat "\"diff: %d\""
config *.switch*.clock.displayStringTextFormat "\"diff: %d\""
config network UseCase
config sim-time-limit 200s
config **.eth*.bitrate 1Gbps
config **.mobility.typename ""
config *.ue.macCellId 0
config *.ue.masterId 0
config *.ue.nrMacCellId 1
config *.ue.nrMasterId 1
config *.ue.intHostAddress "\"Sensor Actuator DSTT\""
config **.amcType "\"NRAmc\""
config **.targetBler 0.001
config **.blerShift 5
config **.numerologyIndex 1
config **.useTdd true
config **.numBands 200
config *.NSTT.**.translatorType "\"NS_TT\""

vector 0 UseCase2.upf.clock timeChanged:vector ETV
attr interpolationmode linear
attr recordingmode vector
attr title "Clock time"
vector 1 UseCase2.upf.eth[0].queue queueLength:vector ETV
attr autoWarmupFilter false
attr interpolationmode sample-hold
attr recordingmode vector
attr source "warmup(atomic(constant0(packetPushEnded) + count(packetPushStarted) - count(packetPulled) - count(packetRemoved) - count(packetDropped)))"
attr title "queue length"
attr unit pk
vector 2 UseCase2.upf.eth[0].queue queueBitLength:vector ETV
attr autoWarmupFilter false
attr interpolationmode sample-hold
attr recordingmode vector
attr source "warmup(atomic(constant0(packetPushEnded) + sum(packetLength(packetPushStarted)) - sum(packetLength(packetPulled)) - sum(packetLength(packetRemoved)) - sum(packetLength(packetDropped))))"
attr title "queue bit length"
attr unit b
vector 3 UseCase2.upf.eth[0].mac transmitting:vector ETV
attr interpolationmode sample-hold
attr recordingmode vector
attr source "count(transmissionStarted) - count(transmissionEnded)"
attr title "transmitting state"
attr type int
vector 4 UseCase2.upf.ethIf.macLayer.queue queueLength:vector ETV
attr autoWarmupFilter false
attr interpolationmode sample-hold
attr recordingmode vector
attr source "warmup(atomic(constant0(packetPushEnded) + count(packetPushStarted) - count(packetPulled) - count(packetRemoved) - count(packetDropped)))"
attr title "queue length"
attr unit pk
vector 5 UseCase2.upf.ethIf.macLayer.queue queueBitLength:vector ETV
attr autoWarmupFilter false
attr interpolationmode sample-hold
attr recordingmode vector
attr source "warmup(atomic(constant0(packetPushEnded) + sum(packetLength(packetPushStarted)) - sum(packetLength(packetPulled)) - sum(packetLength(packetRemoved)) - sum(packetLength(packetDropped))))"
attr title "queue bit length"
attr unit b
vector 6 UseCase2.upf.ethIf.phyLayer.interFrameGapInserter interpacketGap:vector ETV
attr interpolationmode sample-hold
attr recordingmode vector
attr source "count(interpacketGapStarted) - count(interpacketGapEnded)"
attr title "interpacket gap state"
attr type int
vector 7 UseCase2.upf.ethIf.phyLayer.transmitter transmitting:vector ETV
attr interpolationmode sample-hold
attr recordingmode vector
attr source "count(transmissionStarted) - count(transmissionEnded)"
attr title "transmitting state"
attr type int
vector 8 UseCase2.upf.udp passedUpPk:vector(count) ETV
attr interpolationmode none
attr recordingmode vector(count)
attr source packetSentToUpper
attr title "packets passed up, count"
vector 9 UseCase2.upf.udp droppedPkWrongPort:vector(count) ETV
attr interpolationmode none
attr recordingmode vector(count)
attr source packetDropReasonIsNoPortFound(packetDropped)
attr title "packets dropped (wrong port), count"
vector 10 UseCase2.upf.udp droppedPkBadChecksum:vector(count) ETV
attr interpolationmode none
attr recordingmode vector(count)
attr source packetDropReasonIsIncorrectlyReceived(packetDropped)
attr title "packets dropped (checksum error), count"
vector 11 UseCase2.gNB.pppIf.queue queueLength:vector ETV
attr autoWarmupFilter false
attr interpolationmode sample-hold
attr recordingmode vector
attr source "warmup(atomic(constant0(packetPushEnded) + count(packetPushStarted) - count(packetPulled) - count(packetRemoved) - count(packetDropped)))"
attr title "queue length"
attr unit pk
vector 12 UseCase2.gNB.pppIf.queue queueBitLength:vector ETV
attr autoWarmupFilter false
attr interpolationmode sample-hold
attr recordingmode vector
attr source "warmup(atomic(constant0(packetPushEnded) + sum(packetLength(packetPushStarted)) - sum(packetLength(packetPulled)) - sum(packetLength(packetRemoved)) - sum(packetLength(packetDropped))))"
attr title "queue bit length"
attr unit b
vector 13 UseCase2.gNB.pppIf.ppp transmissionState:vector ETV
attr interpolationmode sample-hold
attr recordingmode vector
attr source transmissionStateChanged
attr title "tx state"
vector 14 UseCase2.gNB.pppMEHostIf.queue queueLength:vector ETV
attr autoWarmupFilter false
attr interpolationmode sample-hold
attr recordingmode vector
attr source "warmup(atomic(constant0(packetPushEnded) + count(packetPushStarted) - count(packetPulled) - count(packetRemoved) - count(packetDropped)))"
attr title "queue length"
attr unit pk
vector 15 UseCase2.gNB.pppMEHostIf.queue queueBitLength:vector ETV
attr autoWarmupFilter false
attr interpolationmode sample-hold
attr recordingmode vector
attr source "warmup(atomic(constant0(packetPushEnded) + sum(packetLength(packetPushStarted)) - sum(packetLength(packetPulled)) - sum(packetLength(packetRemoved)) - sum(packetLength(packetDropped))))"
attr title "queue bit length"
attr unit b
vector 16 UseCase2.gNB.pppMEHostIf.ppp transmissionState:vector ETV
attr interpolationmode sample-hold
attr recordingmode vector
attr source transmissionStateChanged
attr title "tx state"
vector 17 UseCase2.gNB.udp passedUpPk:vector(count) ETV
attr interpolationmode none
attr recordingmode vector(count)
attr source packetSentToUpper
attr title "packets passed up, count"
vector 18 UseCase2.gNB.udp droppedPkWrongPort:vector(count) ETV
attr interpolationmode none
attr recordingmode vector(count)
attr source packetDropReasonIsNoPortFound(packetDropped)
attr title "packets dropped (wrong port), count"
vector 19 UseCase2.gNB.udp droppedPkBadChecksum:vector(count) ETV
attr interpolationmode none
attr recordingmode vector(count)
attr source packetDropReasonIsIncorrectlyReceived(packetDropped)
attr title "packets dropped (checksum error), count"
vector 20 UseCase2.gNB.eth.macLayer.queue queueLength:vector ETV
attr autoWarmupFilter false
attr interpolationmode sample-hold
attr recordingmode vector
attr source "warmup(atomic(constant0(packetPushEnded) + count(packetPushStarted) - count(packetPulled) - count(packetRemoved) - count(packetDropped)))"
attr title "queue length"
attr unit pk
vector 21 UseCase2.gNB.eth.macLayer.queue queueBitLength:vector ETV
attr autoWarmupFilter false
attr interpolationmode sample-hold
attr recordingmode vector
attr source "warmup(atomic(constant0(packetPushEnded) + sum(packetLength(packetPushStarted)) - sum(packetLength(packetPulled)) - sum(packetLength(packetRemoved)) - sum(packetLength(packetDropped))))"
attr title "queue bit length"
attr unit b
vector 22 UseCase2.gNB.eth.phyLayer.interFrameGapInserter interpacketGap:vector ETV
attr interpolationmode sample-hold
attr recordingmode vector
attr source "count(interpacketGapStarted) - count(interpacketGapEnded)"
attr title "interpacket gap state"
attr type int
vector 23 UseCase2.gNB.eth.phyLayer.transmitter transmitting:vector ETV
attr interpolationmode sample-hold
attr recordingmode vector
attr source "count(transmissionStarted) - count(transmissionEnded)"
attr title "transmitting state"
attr type int
vector 24 UseCase2.ue.eth[0].queue queueLength:vector ETV
attr autoWarmupFilter false
attr interpolationmode sample-hold
attr recordingmode vector
attr source "warmup(atomic(constant0(packetPushEnded) + count(packetPushStarted) - count(packetPulled) - count(packetRemoved) - count(packetDropped)))"
attr title "queue length"
attr unit pk
vector 25 UseCase2.ue.eth[0].queue queueBitLength:vector ETV
attr autoWarmupFilter false
attr interpolationmode sample-hold
attr recordingmode vector
attr source "warmup(atomic(constant0(packetPushEnded) + sum(packetLength(packetPushStarted)) - sum(packetLength(packetPulled)) - sum(packetLength(packetRemoved)) - sum(packetLength(packetDropped))))"
attr title "queue bit length"
attr unit b
vector 26 UseCase2.ue.eth[0].mac transmitting:vector ETV
attr interpolationmode sample-hold
attr recordingmode vector
attr source "count(transmissionStarted) - count(transmissionEnded)"
attr title "transmitting state"
attr type int
vector 27 UseCase2.ue.udp passedUpPk:vector(count) ETV
attr interpolationmode none
attr recordingmode vector(count)
attr source packetSentToUpper
attr title "packets passed up, count"
vector 28 UseCase2.ue.udp droppedPkWrongPort:vector(count) ETV
attr interpolationmode none
attr recordingmode vector(count)
attr source packetDropReasonIsNoPortFound(packetDropped)
attr title "packets dropped (wrong port), count"
vector 29 UseCase2.ue.udp droppedPkBadChecksum:vector(count) ETV
attr interpolationmode none
attr recordingmode vector(count)
attr source packetDropReasonIsIncorrectlyReceived(packetDropped)
attr title "packets dropped (checksum error), count"
vector 30 UseCase2.DSTT.clock timeChanged:vector ETV
attr interpolationmode linear
attr recordingmode vector
attr title "Clock time"
vector 31 UseCase2.DSTT.eth[0].queue queueLength:vector ETV
attr autoWarmupFilter false
attr interpolationmode sample-hold
attr recordingmode vector
attr source "warmup(atomic(constant0(packetPushEnded) + count(packetPushStarted) - count(packetPulled) - count(packetRemoved) - count(packetDropped)))"
attr title "queue length"
attr unit pk
vector 32 UseCase2.DSTT.eth[0].queue queueBitLength:vector ETV
attr autoWarmupFilter false
attr interpolationmode sample-hold
attr recordingmode vector
attr source "warmup(atomic(constant0(packetPushEnded) + sum(packetLength(packetPushStarted)) - sum(packetLength(packetPulled)) - sum(packetLength(packetRemoved)) - sum(packetLength(packetDropped))))"
attr title "queue bit length"
attr unit b
vector 33 UseCase2.DSTT.eth[0].mac transmitting:vector ETV
attr interpolationmode sample-hold
attr recordingmode vector
attr source "count(transmissionStarted) - count(transmissionEnded)"
attr title "transmitting state"
attr type int
vector 34 UseCase2.DSTT.eth[1].queue queueLength:vector ETV
attr autoWarmupFilter false
attr interpolationmode sample-hold
attr recordingmode vector
attr source "warmup(atomic(constant0(packetPushEnded) + count(packetPushStarted) - count(packetPulled) - count(packetRemoved) - count(packetDropped)))"
attr title "queue length"
attr unit pk
vector 35 UseCase2.DSTT.eth[1].queue queueBitLength:vector ETV
attr autoWarmupFilter false
attr interpolationmode sample-hold
attr recordingmode vector
attr source "warmup(atomic(constant0(packetPushEnded) + sum(packetLength(packetPushStarted)) - sum(packetLength(packetPulled)) - sum(packetLength(packetRemoved)) - sum(packetLength(packetDropped))))"
attr title "queue bit length"
attr unit b
vector 36 UseCase2.DSTT.eth[1].mac transmitting:vector ETV
attr interpolationmode sample-hold
attr recordingmode vector
attr source "count(transmissionStarted) - count(transmissionEnded)"
attr title "transmitting state"
attr type int
vector 37 UseCase2.DSTT.udp passedUpPk:vector(count) ETV
attr interpolationmode none
attr recordingmode vector(count)
attr source packetSentToUpper
attr title "packets passed up, count"
vector 38 UseCase2.DSTT.udp droppedPkWrongPort:vector(count) ETV
attr interpolationmode none
attr recordingmode vector(count)
attr source packetDropReasonIsNoPortFound(packetDropped)
attr title "packets dropped (wrong port), count"
vector 39 UseCase2.DSTT.udp droppedPkBadChecksum:vector(count) ETV
attr interpolationmode none
attr recordingmode vector(count)
attr source packetDropReasonIsIncorrectlyReceived(packetDropped)
attr title "packets dropped (checksum error), count"
vector 40 UseCase2.NSTT.clock timeChanged:vector ETV
attr interpolationmode linear
attr recordingmode vector
attr title "Clock time"
vector 41 UseCase2.NSTT.eth[0].queue queueLength:vector ETV
attr autoWarmupFilter false
attr interpolationmode sample-hold
attr recordingmode vector
attr source "warmup(atomic(constant0(packetPushEnded) + count(packetPushStarted) - count(packetPulled) - count(packetRemoved) - count(packetDropped)))"
attr title "queue length"
attr unit pk
vector 42 UseCase2.NSTT.eth[0].queue queueBitLength:vector ETV
attr autoWarmupFilter false
attr interpolationmode sample-hold
attr recordingmode vector
attr source "warmup(atomic(constant0(packetPushEnded) + sum(packetLength(packetPushStarted)) - sum(packetLength(packetPulled)) - sum(packetLength(packetRemoved)) - sum(packetLength(packetDropped))))"
attr title "queue bit length"
attr unit b
vector 43 UseCase2.NSTT.eth[0].mac transmitting:vector ETV
attr interpolationmode sample-hold
attr recordingmode vector
attr source "count(transmissionStarted) - count(transmissionEnded)"
attr title "transmitting state"
attr type int
vector 44 UseCase2.NSTT.eth[1].queue queueLength:vector ETV
attr autoWarmupFilter false
attr interpolationmode sample-hold
attr recordingmode vector
attr source "warmup(atomic(constant0(packetPushEnded) + count(packetPushStarted) - count(packetPulled) - count(packetRemoved) - count(packetDropped)))"
attr title "queue length"
attr unit pk
vector 45 UseCase2.NSTT.eth[1].queue queueBitLength:vector ETV
attr autoWarmupFilter false
attr interpolationmode sample-hold
attr recordingmode vector
attr source "warmup(atomic(constant0(packetPushEnded) + sum(packetLength(packetPushStarted)) - sum(packetLength(packetPulled)) - sum(packetLength(packetRemoved)) - sum(packetLength(packetDropped))))"
attr title "queue bit length"
attr unit b
vector 46 UseCase2.NSTT.eth[1].mac transmitting:vector ETV
attr interpolationmode sample-hold
attr recordingmode vector
attr source "count(transmissionStarted) - count(transmissionEnded)"
attr title "transmitting state"
attr type int
vector 47 UseCase2.NSTT.udp passedUpPk:vector(count) ETV
attr interpolationmode none
attr recordingmode vector(count)
attr source packetSentToUpper
attr title "packets passed up, count"
vector 48 UseCase2.NSTT.udp droppedPkWrongPort:vector(count) ETV
attr interpolationmode none
attr recordingmode vector(count)
attr source packetDropReasonIsNoPortFound(packetDropped)
attr title "packets dropped (wrong port), count"
vector 49 UseCase2.NSTT.udp droppedPkBadChecksum:vector(count) ETV
attr interpolationmode none
attr recordingmode vector(count)
attr source packetDropReasonIsIncorrectlyReceived(packetDropped)
attr title "packets dropped (checksum error), count"
vector 50 UseCase2.Actuator.eth[0].macLayer.queue queueLength:vector ETV
attr autoWarmupFilter false
attr interpolationmode sample-hold
attr recordingmode vector
attr source "warmup(atomic(constant0(packetPushEnded) + count(packetPushStarted) - count(packetPulled) - count(packetRemoved) - count(packetDropped)))"
attr title "queue length"
attr unit pk
vector 51 UseCase2.Actuator.eth[0].macLayer.queue queueBitLength:vector ETV
attr autoWarmupFilter false
attr interpolationmode sample-hold
attr recordingmode vector
attr source "warmup(atomic(constant0(packetPushEnded) + sum(packetLength(packetPushStarted)) - sum(packetLength(packetPulled)) - sum(packetLength(packetRemoved)) - sum(packetLength(packetDropped))))"
attr title "queue bit length"
attr unit b
vector 52 UseCase2.Actuator.eth[0].phyLayer.interFrameGapInserter interpacketGap:vector ETV
attr interpolationmode sample-hold
attr recordingmode vector
attr source "count(interpacketGapStarted) - count(interpacketGapEnded)"
attr title "interpacket gap state"
attr type int
vector 53 UseCase2.Actuator.eth[0].phyLayer.transmitter transmitting:vector ETV
attr interpolationmode sample-hold
attr recordingmode vector
attr source "count(transmissionStarted) - count(transmissionEnded)"
attr title "transmitting state"
attr type int
vector 54 UseCase2.Actuator.udp passedUpPk:vector(count) ETV
attr interpolationmode none
attr recordingmode vector(count)
attr source packetSentToUpper
attr title "packets passed up, count"
vector 55 UseCase2.Actuator.udp droppedPkWrongPort:vector(count) ETV
attr interpolationmode none
attr recordingmode vector(count)
attr source packetDropReasonIsNoPortFound(packetDropped)
attr title "packets dropped (wrong port), count"
vector 56 UseCase2.Actuator.udp droppedPkBadChecksum:vector(count) ETV
attr interpolationmode none
attr recordingmode vector(count)
attr source packetDropReasonIsIncorrectlyReceived(packetDropped)
attr title "packets dropped (checksum error), count"
vector 57 UseCase2.Actuator.gptp rateRatio:vector ETV
attr interpolationmode sample-hold
attr recordingmode vector
vector 58 UseCase2.Actuator.gptp correctionField:vector ETV
attr interpolationmode linear
attr recordingmode vector
vector 59 UseCase2.Actuator.gptp localTime:vector ETV
attr "" ""
attr interpolationmode linear
attr recordingmode vector
vector 60 UseCase2.Actuator.gptp timeDifference:vector ETV
attr interpolationmode linear
attr recordingmode vector
vector 61 UseCase2.switch5GC.eth[0].macLayer.queue queueLength:vector ETV
attr autoWarmupFilter false
attr interpolationmode sample-hold
attr recordingmode vector
attr source "warmup(atomic(constant0(packetPushEnded) + count(packetPushStarted) - count(packetPulled) - count(packetRemoved) - count(packetDropped)))"
attr title "queue length"
attr unit pk
vector 62 UseCase2.switch5GC.eth[0].macLayer.queue queueBitLength:vector ETV
attr autoWarmupFilter false
attr interpolationmode sample-hold
attr recordingmode vector
attr source "warmup(atomic(constant0(packetPushEnded) + sum(packetLength(packetPushStarted)) - sum(packetLength(packetPulled)) - sum(packetLength(packetRemoved)) - sum(packetLength(packetDropped))))"
attr title "queue bit length"
attr unit b
vector 63 UseCase2.switch5GC.eth[0].phyLayer.interFrameGapInserter interpacketGap:vector ETV
attr interpolationmode sample-hold
attr recordingmode vector
attr source "count(interpacketGapStarted) - count(interpacketGapEnded)"
attr title "interpacket gap state"
attr type int
vector 64 UseCase2.switch5GC.eth[0].phyLayer.transmitter transmitting:vector ETV
attr interpolationmode sample-hold
attr recordingmode vector
attr source "count(transmissionStarted) - count(transmissionEnded)"
attr title "transmitting state"
attr type int
vector 65 UseCase2.switch5GC.eth[1].macLayer.queue queueLength:vector ETV
attr autoWarmupFilter false
attr interpolationmode sample-hold
attr recordingmode vector
attr source "warmup(atomic(constant0(packetPushEnded) + count(packetPushStarted) - count(packetPulled) - count(packetRemoved) - count(packetDropped)))"
attr title "queue length"
attr unit pk
vector 66 UseCase2.switch5GC.eth[1].macLayer.queue queueBitLength:vector ETV
attr autoWarmupFilter false
attr interpolationmode sample-hold
attr recordingmode vector
attr source "warmup(atomic(constant0(packetPushEnded) + sum(packetLength(packetPushStarted)) - sum(packetLength(packetPulled)) - sum(packetLength(packetRemoved)) - sum(packetLength(packetDropped))))"
attr title "queue bit length"
attr unit b
vector 67 UseCase2.switch5GC.eth[1].phyLayer.interFrameGapInserter interpacketGap:vector ETV
attr interpolationmode sample-hold
attr recordingmode vector
attr source "count(interpacketGapStarted) - count(interpacketGapEnded)"
attr title "interpacket gap state"
attr type int
vector 68 UseCase2.switch5GC.eth[1].phyLayer.transmitter transmitting:vector ETV
attr interpolationmode sample-hold
attr recordingmode vector
attr source "count(transmissionStarted) - count(transmissionEnded)"
attr title "transmitting state"
attr type int
vector 69 UseCase2.switchTSN.gptp rateRatio:vector ETV
attr interpolationmode sample-hold
attr recordingmode vector
vector 70 UseCase2.switchTSN.gptp correctionField:vector ETV
attr interpolationmode linear
attr recordingmode vector
vector 71 UseCase2.switchTSN.gptp localTime:vector ETV
attr "" ""
attr interpolationmode linear
attr recordingmode vector
vector 72 UseCase2.switchTSN.gptp timeDifference:vector ETV
attr interpolationmode linear
attr recordingmode vector
vector 73 UseCase2.switchTSN.eth[0].macLayer.queue queueLength:vector ETV
attr autoWarmupFilter false
attr interpolationmode sample-hold
attr recordingmode vector
attr source "warmup(atomic(constant0(packetPushEnded) + count(packetPushStarted) - count(packetPulled) - count(packetRemoved) - count(packetDropped)))"
attr title "queue length"
attr unit pk
vector 74 UseCase2.switchTSN.eth[0].macLayer.queue queueBitLength:vector ETV
attr autoWarmupFilter false
attr interpolationmode sample-hold
attr recordingmode vector
attr source "warmup(atomic(constant0(packetPushEnded) + sum(packetLength(packetPushStarted)) - sum(packetLength(packetPulled)) - sum(packetLength(packetRemoved)) - sum(packetLength(packetDropped))))"
attr title "queue bit length"
attr unit b
vector 75 UseCase2.switchTSN.eth[0].phyLayer.interFrameGapInserter interpacketGap:vector ETV
attr interpolationmode sample-hold
attr recordingmode vector
attr source "count(interpacketGapStarted) - count(interpacketGapEnded)"
attr title "interpacket gap state"
attr type int
vector 76 UseCase2.switchTSN.eth[0].phyLayer.transmitter transmitting:vector ETV
attr interpolationmode sample-hold
attr recordingmode vector
attr source "count(transmissionStarted) - count(transmissionEnded)"
attr title "transmitting state"
attr type int
vector 77 UseCase2.switchTSN.eth[1].macLayer.queue queueLength:vector ETV
attr autoWarmupFilter false
attr interpolationmode sample-hold
attr recordingmode vector
attr source "warmup(atomic(constant0(packetPushEnded) + count(packetPushStarted) - count(packetPulled) - count(packetRemoved) - count(packetDropped)))"
attr title "queue length"
attr unit pk
vector 78 UseCase2.switchTSN.eth[1].macLayer.queue queueBitLength:vector ETV
attr autoWarmupFilter false
attr interpolationmode sample-hold
attr recordingmode vector
attr source "warmup(atomic(constant0(packetPushEnded) + sum(packetLength(packetPushStarted)) - sum(packetLength(packetPulled)) - sum(packetLength(packetRemoved)) - sum(packetLength(packetDropped))))"
attr title "queue bit length"
attr unit b
vector 79 UseCase2.switchTSN.eth[1].phyLayer.interFrameGapInserter interpacketGap:vector ETV
attr interpolationmode sample-hold
attr recordingmode vector
attr source "count(interpacketGapStarted) - count(interpacketGapEnded)"
attr title "interpacket gap state"
attr type int
vector 80 UseCase2.switchTSN.eth[1].phyLayer.transmitter transmitting:vector ETV
attr interpolationmode sample-hold
attr recordingmode vector
attr source "count(transmissionStarted) - count(transmissionEnded)"
attr title "transmitting state"
attr type int
vector 81 UseCase2.switchTSN.eth[2].macLayer.queue queueLength:vector ETV
attr autoWarmupFilter false
attr interpolationmode sample-hold
attr recordingmode vector
attr source "warmup(atomic(constant0(packetPushEnded) + count(packetPushStarted) - count(packetPulled) - count(packetRemoved) - count(packetDropped)))"
attr title "queue length"
attr unit pk
vector 82 UseCase2.switchTSN.eth[2].macLayer.queue queueBitLength:vector ETV
attr autoWarmupFilter false
attr interpolationmode sample-hold
attr recordingmode vector
attr source "warmup(atomic(constant0(packetPushEnded) + sum(packetLength(packetPushStarted)) - sum(packetLength(packetPulled)) - sum(packetLength(packetRemoved)) - sum(packetLength(packetDropped))))"
attr title "queue bit length"
attr unit b
vector 83 UseCase2.switchTSN.eth[2].phyLayer.interFrameGapInserter interpacketGap:vector ETV
attr interpolationmode sample-hold
attr recordingmode vector
attr source "count(interpacketGapStarted) - count(interpacketGapEnded)"
attr title "interpacket gap state"
attr type int
vector 84 UseCase2.switchTSN.eth[2].phyLayer.transmitter transmitting:vector ETV
attr interpolationmode sample-hold
attr recordingmode vector
attr source "count(transmissionStarted) - count(transmissionEnded)"
attr title "transmitting state"
attr type int
vector 85 UseCase2.PLC.eth[0].macLayer.queue queueLength:vector ETV
attr autoWarmupFilter false
attr interpolationmode sample-hold
attr recordingmode vector
attr source "warmup(atomic(constant0(packetPushEnded) + count(packetPushStarted) - count(packetPulled) - count(packetRemoved) - count(packetDropped)))"
attr title "queue length"
attr unit pk
vector 86 UseCase2.PLC.eth[0].macLayer.queue queueBitLength:vector ETV
attr autoWarmupFilter false
attr interpolationmode sample-hold
attr recordingmode vector
attr source "warmup(atomic(constant0(packetPushEnded) + sum(packetLength(packetPushStarted)) - sum(packetLength(packetPulled)) - sum(packetLength(packetRemoved)) - sum(packetLength(packetDropped))))"
attr title "queue bit length"
attr unit b
vector 87 UseCase2.PLC.eth[0].phyLayer.interFrameGapInserter interpacketGap:vector ETV
attr interpolationmode sample-hold
attr recordingmode vector
attr source "count(interpacketGapStarted) - count(interpacketGapEnded)"
attr title "interpacket gap state"
attr type int
vector 88 UseCase2.PLC.eth[0].phyLayer.transmitter transmitting:vector ETV
attr interpolationmode sample-hold
attr recordingmode vector
attr source "count(transmissionStarted) - count(transmissionEnded)"
attr title "transmitting state"
attr type int
vector 89 UseCase2.PLC.udp passedUpPk:vector(count) ETV
attr interpolationmode none
attr recordingmode vector(count)
attr source packetSentToUpper
attr title "packets passed up, count"
vector 90 UseCase2.PLC.udp droppedPkWrongPort:vector(count) ETV
attr interpolationmode none
attr recordingmode vector(count)
attr source packetDropReasonIsNoPortFound(packetDropped)
attr title "packets dropped (wrong port), count"
vector 91 UseCase2.PLC.udp droppedPkBadChecksum:vector(count) ETV
attr interpolationmode none
attr recordingmode vector(count)
attr source packetDropReasonIsIncorrectlyReceived(packetDropped)
attr title "packets dropped (checksum error), count"
vector 92 UseCase2.Sensor.eth[0].macLayer.queue queueLength:vector ETV
attr autoWarmupFilter false
attr interpolationmode sample-hold
attr recordingmode vector
attr source "warmup(atomic(constant0(packetPushEnded) + count(packetPushStarted) - count(packetPulled) - count(packetRemoved) - count(packetDropped)))"
attr title "queue length"
attr unit pk
vector 93 UseCase2.Sensor.eth[0].macLayer.queue queueBitLength:vector ETV
attr autoWarmupFilter false
attr interpolationmode sample-hold
attr recordingmode vector
attr source "warmup(atomic(constant0(packetPushEnded) + sum(packetLength(packetPushStarted)) - sum(packetLength(packetPulled)) - sum(packetLength(packetRemoved)) - sum(packetLength(packetDropped))))"
attr title "queue bit length"
attr unit b
vector 94 UseCase2.Sensor.eth[0].phyLayer.interFrameGapInserter interpacketGap:vector ETV
attr interpolationmode sample-hold
attr recordingmode vector
attr source "count(interpacketGapStarted) - count(interpacketGapEnded)"
attr title "interpacket gap state"
attr type int
vector 95 UseCase2.Sensor.eth[0].phyLayer.transmitter transmitting:vector ETV
attr interpolationmode sample-hold
attr recordingmode vector
attr source "count(transmissionStarted) - count(transmissionEnded)"
attr title "transmitting state"
attr type int
vector 96 UseCase2.Sensor.udp passedUpPk:vector(count) ETV
attr interpolationmode none
attr recordingmode vector(count)
attr source packetSentToUpper
attr title "packets passed up, count"
vector 97 UseCase2.Sensor.udp droppedPkWrongPort:vector(count) ETV
attr interpolationmode none
attr recordingmode vector(count)
attr source packetDropReasonIsNoPortFound(packetDropped)
attr title "packets dropped (wrong port), count"
vector 98 UseCase2.Sensor.udp droppedPkBadChecksum:vector(count) ETV
attr interpolationmode none
attr recordingmode vector(count)
attr source packetDropReasonIsIncorrectlyReceived(packetDropped)
attr title "packets dropped (checksum error), count"
vector 99 UseCase2.Sensor.gptp rateRatio:vector ETV
attr interpolationmode sample-hold
attr recordingmode vector
vector 100 UseCase2.Sensor.gptp correctionField:vector ETV
attr interpolationmode linear
attr recordingmode vector
vector 101 UseCase2.Sensor.gptp localTime:vector ETV
attr "" ""
attr interpolationmode linear
attr recordingmode vector
vector 102 UseCase2.Sensor.gptp timeDifference:vector ETV
attr interpolationmode linear
attr recordingmode vector
vector 103 UseCase2.ue2.eth[0].queue queueLength:vector ETV
attr autoWarmupFilter false
attr interpolationmode sample-hold
attr recordingmode vector
attr source "warmup(atomic(constant0(packetPushEnded) + count(packetPushStarted) - count(packetPulled) - count(packetRemoved) - count(packetDropped)))"
attr title "queue length"
attr unit pk
vector 104 UseCase2.ue2.eth[0].queue queueBitLength:vector ETV
attr autoWarmupFilter false
attr interpolationmode sample-hold
attr recordingmode vector
attr source "warmup(atomic(constant0(packetPushEnded) + sum(packetLength(packetPushStarted)) - sum(packetLength(packetPulled)) - sum(packetLength(packetRemoved)) - sum(packetLength(packetDropped))))"
attr title "queue bit length"
attr unit b
vector 105 UseCase2.ue2.eth[0].mac transmitting:vector ETV
attr interpolationmode sample-hold
attr recordingmode vector
attr source "count(transmissionStarted) - count(transmissionEnded)"
attr title "transmitting state"
attr type int
vector 106 UseCase2.ue2.udp passedUpPk:vector(count) ETV
attr interpolationmode none
attr recordingmode vector(count)
attr source packetSentToUpper
attr title "packets passed up, count"
vector 107 UseCase2.ue2.udp droppedPkWrongPort:vector(count) ETV
attr interpolationmode none
attr recordingmode vector(count)
attr source packetDropReasonIsNoPortFound(packetDropped)
attr title "packets dropped (wrong port), count"
vector 108 UseCase2.ue2.udp droppedPkBadChecksum:vector(count) ETV
attr interpolationmode none
attr recordingmode vector(count)
attr source packetDropReasonIsIncorrectlyReceived(packetDropped)
attr title "packets dropped (checksum error), count"
vector 109 UseCase2.DSTT2.clock timeChanged:vector ETV
attr interpolationmode linear
attr recordingmode vector
attr title "Clock time"
vector 110 UseCase2.DSTT2.eth[0].queue queueLength:vector ETV
attr autoWarmupFilter false
attr interpolationmode sample-hold
attr recordingmode vector
attr source "warmup(atomic(constant0(packetPushEnded) + count(packetPushStarted) - count(packetPulled) - count(packetRemoved) - count(packetDropped)))"
attr title "queue length"
attr unit pk
vector 111 UseCase2.DSTT2.eth[0].queue queueBitLength:vector ETV
attr autoWarmupFilter false
attr interpolationmode sample-hold
attr recordingmode vector
attr source "warmup(atomic(constant0(packetPushEnded) + sum(packetLength(packetPushStarted)) - sum(packetLength(packetPulled)) - sum(packetLength(packetRemoved)) - sum(packetLength(packetDropped))))"
attr title "queue bit length"
attr unit b
vector 112 UseCase2.DSTT2.eth[0].mac transmitting:vector ETV
attr interpolationmode sample-hold
attr recordingmode vector
attr source "count(transmissionStarted) - count(transmissionEnded)"
attr title "transmitting state"
attr type int
vector 113 UseCase2.DSTT2.eth[1].queue queueLength:vector ETV
attr autoWarmupFilter false
attr interpolationmode sample-hold
attr recordingmode vector
attr source "warmup(atomic(constant0(packetPushEnded) + count(packetPushStarted) - count(packetPulled) - count(packetRemoved) - count(packetDropped)))"
attr title "queue length"
attr unit pk
vector 114 UseCase2.DSTT2.eth[1].queue queueBitLength:vector ETV
attr autoWarmupFilter false
attr interpolationmode sample-hold
attr recordingmode vector
attr source "warmup(atomic(constant0(packetPushEnded) + sum(packetLength(packetPushStarted)) - sum(packetLength(packetPulled)) - sum(packetLength(packetRemoved)) - sum(packetLength(packetDropped))))"
attr title "queue bit length"
attr unit b
vector 115 UseCase2.DSTT2.eth[1].mac transmitting:vector ETV
attr interpolationmode sample-hold
attr recordingmode vector
attr source "count(transmissionStarted) - count(transmissionEnded)"
attr title "transmitting state"
attr type int
vector 116 UseCase2.DSTT2.udp passedUpPk:vector(count) ETV
attr interpolationmode none
attr recordingmode vector(count)
attr source packetSentToUpper
attr title "packets passed up, count"
vector 117 UseCase2.DSTT2.udp droppedPkWrongPort:vector(count) ETV
attr interpolationmode none
attr recordingmode vector(count)
attr source packetDropReasonIsNoPortFound(packetDropped)
attr title "packets dropped (wrong port), count"
vector 118 UseCase2.DSTT2.udp droppedPkBadChecksum:vector(count) ETV
attr interpolationmode none
attr recordingmode vector(count)
attr source packetDropReasonIsIncorrectlyReceived(packetDropped)
attr title "packets dropped (checksum error), count"
vector 119 UseCase2.switchTSN2.gptp rateRatio:vector ETV
attr interpolationmode sample-hold
attr recordingmode vector
vector 120 UseCase2.switchTSN2.gptp correctionField:vector ETV
attr interpolationmode linear
attr recordingmode vector
vector 121 UseCase2.switchTSN2.gptp localTime:vector ETV
attr "" ""
attr interpolationmode linear
attr recordingmode vector
vector 122 UseCase2.switchTSN2.gptp timeDifference:vector ETV
attr interpolationmode linear
attr recordingmode vector
vector 123 UseCase2.switchTSN2.eth[0].macLayer.queue queueLength:vector ETV
attr autoWarmupFilter false
attr interpolationmode sample-hold
attr recordingmode vector
attr source "warmup(atomic(constant0(packetPushEnded) + count(packetPushStarted) - count(packetPulled) - count(packetRemoved) - count(packetDropped)))"
attr title "queue length"
attr unit pk
vector 124 UseCase2.switchTSN2.eth[0].macLayer.queue queueBitLength:vector ETV
attr autoWarmupFilter false
attr interpolationmode sample-hold
attr recordingmode vector
attr source "warmup(atomic(constant0(packetPushEnded) + sum(packetLength(packetPushStarted)) - sum(packetLength(packetPulled)) - sum(packetLength(packetRemoved)) - sum(packetLength(packetDropped))))"
attr title "queue bit length"
attr unit b
vector 125 UseCase2.switchTSN2.eth[0].phyLayer.interFrameGapInserter interpacketGap:vector ETV
attr interpolationmode sample-hold
attr recordingmode vector
attr source "count(interpacketGapStarted) - count(interpacketGapEnded)"
attr title "interpacket gap state"
attr type int
vector 126 UseCase2.switchTSN2.eth[0].phyLayer.transmitter transmitting:vector ETV
attr interpolationmode sample-hold
attr recordingmode vector
attr source "count(transmissionStarted) - count(transmissionEnded)"
attr title "transmitting state"
attr type int
vector 127 UseCase2.switchTSN2.eth[1].macLayer.queue queueLength:vector ETV
attr autoWarmupFilter false
attr interpolationmode sample-hold
attr recordingmode vector
attr source "warmup(atomic(constant0(packetPushEnded) + count(packetPushStarted) - count(packetPulled) - count(packetRemoved) - count(packetDropped)))"
attr title "queue length"
attr unit pk
vector 128 UseCase2.switchTSN2.eth[1].macLayer.queue queueBitLength:vector ETV
attr autoWarmupFilter false
attr interpolationmode sample-hold
attr recordingmode vector
attr source "warmup(atomic(constant0(packetPushEnded) + sum(packetLength(packetPushStarted)) - sum(packetLength(packetPulled)) - sum(packetLength(packetRemoved)) - sum(packetLength(packetDropped))))"
attr title "queue bit length"
attr unit b
vector 129 UseCase2.switchTSN2.eth[1].phyLayer.interFrameGapInserter interpacketGap:vector ETV
attr interpolationmode sample-hold
attr recordingmode vector
attr source "count(interpacketGapStarted) - count(interpacketGapEnded)"
attr title "interpacket gap state"
attr type int
vector 130 UseCase2.switchTSN2.eth[1].phyLayer.transmitter transmitting:vector ETV
attr interpolationmode sample-hold
attr recordingmode vector
attr source "count(transmissionStarted) - count(transmissionEnded)"
attr title "transmitting state"
attr type int
vector 131 UseCase2.Actuator2.eth[0].macLayer.queue queueLength:vector ETV
attr autoWarmupFilter false
attr interpolationmode sample-hold
attr recordingmode vector
attr source "warmup(atomic(constant0(packetPushEnded) + count(packetPushStarted) - count(packetPulled) - count(packetRemoved) - count(packetDropped)))"
attr title "queue length"
attr unit pk
vector 132 UseCase2.Actuator2.eth[0].macLayer.queue queueBitLength:vector ETV
attr autoWarmupFilter false
attr interpolationmode sample-hold
attr recordingmode vector
attr source "warmup(atomic(constant0(packetPushEnded) + sum(packetLength(packetPushStarted)) - sum(packetLength(packetPulled)) - sum(packetLength(packetRemoved)) - sum(packetLength(packetDropped))))"
attr title "queue bit length"
attr unit b
vector 133 UseCase2.Actuator2.eth[0].phyLayer.interFrameGapInserter interpacketGap:vector ETV
attr interpolationmode sample-hold
attr recordingmode vector
attr source "count(interpacketGapStarted) - count(interpacketGapEnded)"
attr title "interpacket gap state"
attr type int
vector 134 UseCase2.Actuator2.eth[0].phyLayer.transmitter transmitting:vector ETV
attr interpolationmode sample-hold
attr recordingmode vector
attr source "count(transmissionStarted) - count(transmissionEnded)"
attr title "transmitting state"
attr type int
vector 135 UseCase2.Actuator2.udp passedUpPk:vector(count) ETV
attr interpolationmode none
attr recordingmode vector(count)
attr source packetSentToUpper
attr title "packets passed up, count"
vector 136 UseCase2.Actuator2.udp droppedPkWrongPort:vector(count) ETV
attr interpolationmode none
attr recordingmode vector(count)
attr source packetDropReasonIsNoPortFound(packetDropped)
attr title "packets dropped (wrong port), count"
vector 137 UseCase2.Actuator2.udp droppedPkBadChecksum:vector(count) ETV
attr interpolationmode none
attr recordingmode vector(count)
attr source packetDropReasonIsIncorrectlyReceived(packetDropped)
attr title "packets dropped (checksum error), count"
vector 138 UseCase2.Actuator2.gptp rateRatio:vector ETV
attr interpolationmode sample-hold
attr recordingmode vector
vector 139 UseCase2.Actuator2.gptp correctionField:vector ETV
attr interpolationmode linear
attr recordingmode vector
vector 140 UseCase2.Actuator2.gptp localTime:vector ETV
attr "" ""
attr interpolationmode linear
attr recordingmode vector
vector 141 UseCase2.Actuator2.gptp timeDifference:vector ETV
attr interpolationmode linear
attr recordingmode vector
vector 142 UseCase2.ue.cellularNic.phy servingCell:vector ETV
attr recordingmode vector
attr source servingCell
attr title "ID of the serving eNodeB for the UE"
attr unit ""
vector 143 UseCase2.ue.cellularNic.nrPhy servingCell:vector ETV
attr recordingmode vector
attr source servingCell
attr title "ID of the serving eNodeB for the UE"
attr unit ""
vector 144 UseCase2.ue2.cellularNic.phy servingCell:vector ETV
attr recordingmode vector
attr source servingCell
attr title "ID of the serving eNodeB for the UE"
attr unit ""
vector 145 UseCase2.ue2.cellularNic.nrPhy servingCell:vector ETV
attr recordingmode vector
attr source servingCell
attr title "ID of the serving eNodeB for the UE"
attr unit ""
vector 146 UseCase2.Actuator.clock timeChanged:vector ETV
attr interpolationmode linear
attr recordingmode vector
attr title "Clock time"
vector 147 UseCase2.switchTSN.clock timeChanged:vector ETV
attr interpolationmode linear
attr recordingmode vector
attr title "Clock time"
vector 148 UseCase2.Sensor.clock timeChanged:vector ETV
attr interpolationmode linear
attr recordingmode vector
attr title "Clock time"
vector 149 UseCase2.switchTSN2.clock timeChanged:vector ETV
attr interpolationmode linear
attr recordingmode vector
attr title "Clock time"
vector 150 UseCase2.Actuator2.clock timeChanged:vector ETV
attr interpolationmode linear
attr recordingmode vector
attr title "Clock time"
vector 151 UseCase2.Actuator.ethernet.macHeaderInserter incomingPacketLengths:vector ETV
attr interpolationmode none
attr recordingmode vector
attr source "packetLength(merge(packetPushedIn, packetPulledIn))"
attr title "incoming packet lengths"
attr unit b
vector 152 UseCase2.Actuator.ethernet.macHeaderInserter outgoingPacketLengths:vector ETV
attr interpolationmode none
attr recordingmode vector
attr source "packetLength(merge(packetPushedOut, packetPulledOut))"
attr title "outgoing packet lengths"
attr unit b
vector 153 UseCase2.Actuator.ethernet.paddingInserter incomingPacketLengths:vector ETV
attr interpolationmode none
attr recordingmode vector
attr source "packetLength(merge(packetPushedIn, packetPulledIn))"
attr title "incoming packet lengths"
attr unit b
vector 154 UseCase2.Actuator.ethernet.paddingInserter outgoingPacketLengths:vector ETV
attr interpolationmode none
attr recordingmode vector
attr source "packetLength(merge(packetPushedOut, packetPulledOut))"
attr title "outgoing packet lengths"
attr unit b
vector 155 UseCase2.Actuator.ethernet.fcsInserter incomingPacketLengths:vector ETV
attr interpolationmode none
attr recordingmode vector
attr source "packetLength(merge(packetPushedIn, packetPulledIn))"
attr title "incoming packet lengths"
attr unit b
vector 156 UseCase2.Actuator.ethernet.fcsInserter outgoingPacketLengths:vector ETV
attr interpolationmode none
attr recordingmode vector
attr source "packetLength(merge(packetPushedOut, packetPulledOut))"
attr title "outgoing packet lengths"
attr unit b
vector 157 UseCase2.Actuator.eth[0].macLayer.queue incomingPacketLengths:vector ETV
attr interpolationmode none
attr recordingmode vector
attr source packetLength(packetPushStarted)
attr title "incoming packet lengths"
attr unit b
vector 158 UseCase2.Sensor.ethernet.macHeaderInserter incomingPacketLengths:vector ETV
attr interpolationmode none
attr recordingmode vector
attr source "packetLength(merge(packetPushedIn, packetPulledIn))"
attr title "incoming packet lengths"
attr unit b
vector 159 UseCase2.Sensor.ethernet.macHeaderInserter outgoingPacketLengths:vector ETV
attr interpolationmode none
attr recordingmode vector
attr source "packetLength(merge(packetPushedOut, packetPulledOut))"
attr title "outgoing packet lengths"
attr unit b
vector 160 UseCase2.Sensor.ethernet.paddingInserter incomingPacketLengths:vector ETV
attr interpolationmode none
attr recordingmode vector
attr source "packetLength(merge(packetPushedIn, packetPulledIn))"
attr title "incoming packet lengths"
attr unit b
vector 161 UseCase2.Sensor.ethernet.paddingInserter outgoingPacketLengths:vector ETV
attr interpolationmode none
attr recordingmode vector
attr source "packetLength(merge(packetPushedOut, packetPulledOut))"
attr title "outgoing packet lengths"
attr unit b
vector 162 UseCase2.Sensor.ethernet.fcsInserter incomingPacketLengths:vector ETV
attr interpolationmode none
attr recordingmode vector
attr source "packetLength(merge(packetPushedIn, packetPulledIn))"
attr title "incoming packet lengths"
attr unit b
vector 163 UseCase2.Sensor.ethernet.fcsInserter outgoingPacketLengths:vector ETV
attr interpolationmode none
attr recordingmode vector
attr source "packetLength(merge(packetPushedOut, packetPulledOut))"
attr title "outgoing packet lengths"
attr unit b
vector 164 UseCase2.Sensor.eth[0].macLayer.queue incomingPacketLengths:vector ETV
attr interpolationmode none
attr recordingmode vector
attr source packetLength(packetPushStarted)
attr title "incoming packet lengths"
attr unit b
vector 165 UseCase2.switchTSN2.ethernet.macHeaderInserter incomingPacketLengths:vector ETV
attr interpolationmode none
attr recordingmode vector
attr source "packetLength(merge(packetPushedIn, packetPulledIn))"
attr title "incoming packet lengths"
attr unit b
vector 166 UseCase2.switchTSN2.ethernet.macHeaderInserter outgoingPacketLengths:vector ETV
attr interpolationmode none
attr recordingmode vector
attr source "packetLength(merge(packetPushedOut, packetPulledOut))"
attr title "outgoing packet lengths"
attr unit b
vector 167 UseCase2.switchTSN2.ethernet.paddingInserter incomingPacketLengths:vector ETV
attr interpolationmode none
attr recordingmode vector
attr source "packetLength(merge(packetPushedIn, packetPulledIn))"
attr title "incoming packet lengths"
attr unit b
vector 168 UseCase2.switchTSN2.ethernet.paddingInserter outgoingPacketLengths:vector ETV
attr interpolationmode none
attr recordingmode vector
attr source "packetLength(merge(packetPushedOut, packetPulledOut))"
attr title "outgoing packet lengths"
attr unit b
vector 169 UseCase2.switchTSN2.ethernet.fcsInserter incomingPacketLengths:vector ETV
attr interpolationmode none
attr recordingmode vector
attr source "packetLength(merge(packetPushedIn, packetPulledIn))"
attr title "incoming packet lengths"
attr unit b
vector 170 UseCase2.switchTSN2.ethernet.fcsInserter outgoingPacketLengths:vector ETV
attr interpolationmode none
attr recordingmode vector
attr source "packetLength(merge(packetPushedOut, packetPulledOut))"
attr title "outgoing packet lengths"
attr unit b
vector 171 UseCase2.switchTSN2.eth[0].macLayer.queue incomingPacketLengths:vector ETV
attr interpolationmode none
attr recordingmode vector
attr source packetLength(packetPushStarted)
attr title "incoming packet lengths"
attr unit b
vector 172 UseCase2.Actuator2.ethernet.macHeaderInserter incomingPacketLengths:vector ETV
attr interpolationmode none
attr recordingmode vector
attr source "packetLength(merge(packetPushedIn, packetPulledIn))"
attr title "incoming packet lengths"
attr unit b
vector 173 UseCase2.Actuator2.ethernet.macHeaderInserter outgoingPacketLengths:vector ETV
attr interpolationmode none
attr recordingmode vector
attr source "packetLength(merge(packetPushedOut, packetPulledOut))"
attr title "outgoing packet lengths"
attr unit b
vector 174 UseCase2.Actuator2.ethernet.paddingInserter incomingPacketLengths:vector ETV
attr interpolationmode none
attr recordingmode vector
attr source "packetLength(merge(packetPushedIn, packetPulledIn))"
attr title "incoming packet lengths"
attr unit b
vector 175 UseCase2.Actuator2.ethernet.paddingInserter outgoingPacketLengths:vector ETV
attr interpolationmode none
attr recordingmode vector
attr source "packetLength(merge(packetPushedOut, packetPulledOut))"
attr title "outgoing packet lengths"
attr unit b
vector 176 UseCase2.Actuator2.ethernet.fcsInserter incomingPacketLengths:vector ETV
attr interpolationmode none
attr recordingmode vector
attr source "packetLength(merge(packetPushedIn, packetPulledIn))"
attr title "incoming packet lengths"
attr unit b
vector 177 UseCase2.Actuator2.ethernet.fcsInserter outgoingPacketLengths:vector ETV
attr interpolationmode none
attr recordingmode vector
attr source "packetLength(merge(packetPushedOut, packetPulledOut))"
attr title "outgoing packet lengths"
attr unit b
vector 178 UseCase2.Actuator2.eth[0].macLayer.queue incomingPacketLengths:vector ETV
attr interpolationmode none
attr recordingmode vector
attr source packetLength(packetPushStarted)
attr title "incoming packet lengths"
attr unit b
vector 179 UseCase2.Actuator.eth[0].macLayer.queue queueingTime:vector ETV
attr interpolationmode none
attr recordingmode vector
attr source queueingTime(packetPulled)
attr title "queueing times"
attr unit s
vector 180 UseCase2.Actuator.eth[0].macLayer.queue outgoingPacketLengths:vector ETV
attr interpolationmode none
attr recordingmode vector
attr source packetLength(packetPulled)
attr title "outgoing packet lengths"
attr unit b
vector 181 UseCase2.Actuator.eth[0].macLayer.server incomingPacketLengths:vector ETV
attr interpolationmode none
attr recordingmode vector
attr source packetLength(packetPulled)
attr title "incoming packet lengths"
attr unit b
vector 182 UseCase2.Actuator.eth[0].macLayer.server outgoingPacketLengths:vector ETV
attr interpolationmode none
attr recordingmode vector
attr source packetLength(packetPushed)
attr title "outgoing packet lengths"
attr unit b
vector 183 UseCase2.Actuator.eth[0].macLayer.outboundEmitter incomingPacketLengths:vector ETV
attr interpolationmode none
attr recordingmode vector
attr source "packetLength(merge(packetPushedIn, packetPulledIn))"
attr title "incoming packet lengths"
attr unit b
vector 184 UseCase2.Actuator.eth[0].macLayer.outboundEmitter outgoingPacketLengths:vector ETV
attr interpolationmode none
attr recordingmode vector
attr source "packetLength(merge(packetPushedOut, packetPulledOut))"
attr title "outgoing packet lengths"
attr unit b
vector 185 UseCase2.Actuator.eth[0].phyLayer.phyHeaderInserter incomingPacketLengths:vector ETV
attr interpolationmode none
attr recordingmode vector
attr source "packetLength(merge(packetPushedIn, packetPulledIn))"
attr title "incoming packet lengths"
attr unit b
vector 186 UseCase2.Actuator.eth[0].phyLayer.phyHeaderInserter outgoingPacketLengths:vector ETV
attr interpolationmode none
attr recordingmode vector
attr source "packetLength(merge(packetPushedOut, packetPulledOut))"
attr title "outgoing packet lengths"
attr unit b
vector 187 UseCase2.Actuator.eth[0].phyLayer.outboundEmitter incomingPacketLengths:vector ETV
attr interpolationmode none
attr recordingmode vector
attr source "packetLength(merge(packetPushedIn, packetPulledIn))"
attr title "incoming packet lengths"
attr unit b
vector 188 UseCase2.Actuator.eth[0].phyLayer.outboundEmitter outgoingPacketLengths:vector ETV
attr interpolationmode none
attr recordingmode vector
attr source "packetLength(merge(packetPushedOut, packetPulledOut))"
attr title "outgoing packet lengths"
attr unit b
vector 189 UseCase2.Sensor.eth[0].macLayer.queue queueingTime:vector ETV
attr interpolationmode none
attr recordingmode vector
attr source queueingTime(packetPulled)
attr title "queueing times"
attr unit s
vector 190 UseCase2.Sensor.eth[0].macLayer.queue outgoingPacketLengths:vector ETV
attr interpolationmode none
attr recordingmode vector
attr source packetLength(packetPulled)
attr title "outgoing packet lengths"
attr unit b
vector 191 UseCase2.Sensor.eth[0].macLayer.server incomingPacketLengths:vector ETV
attr interpolationmode none
attr recordingmode vector
attr source packetLength(packetPulled)
attr title "incoming packet lengths"
attr unit b
vector 192 UseCase2.Sensor.eth[0].macLayer.server outgoingPacketLengths:vector ETV
attr interpolationmode none
attr recordingmode vector
attr source packetLength(packetPushed)
attr title "outgoing packet lengths"
attr unit b
vector 193 UseCase2.Sensor.eth[0].macLayer.outboundEmitter incomingPacketLengths:vector ETV
attr interpolationmode none
attr recordingmode vector
attr source "packetLength(merge(packetPushedIn, packetPulledIn))"
attr title "incoming packet lengths"
attr unit b
vector 194 UseCase2.Sensor.eth[0].macLayer.outboundEmitter outgoingPacketLengths:vector ETV
attr interpolationmode none
attr recordingmode vector
attr source "packetLength(merge(packetPushedOut, packetPulledOut))"
attr title "outgoing packet lengths"
attr unit b
vector 195 UseCase2.Sensor.eth[0].phyLayer.phyHeaderInserter incomingPacketLengths:vector ETV
attr interpolationmode none
attr recordingmode vector
attr source "packetLength(merge(packetPushedIn, packetPulledIn))"
attr title "incoming packet lengths"
attr unit b
vector 196 UseCase2.Sensor.eth[0].phyLayer.phyHeaderInserter outgoingPacketLengths:vector ETV
attr interpolationmode none
attr recordingmode vector
attr source "packetLength(merge(packetPushedOut, packetPulledOut))"
attr title "outgoing packet lengths"
attr unit b
vector 197 UseCase2.Sensor.eth[0].phyLayer.outboundEmitter incomingPacketLengths:vector ETV
attr interpolationmode none
attr recordingmode vector
attr source "packetLength(merge(packetPushedIn, packetPulledIn))"
attr title "incoming packet lengths"
attr unit b
vector 198 UseCase2.Sensor.eth[0].phyLayer.outboundEmitter outgoingPacketLengths:vector ETV
attr interpolationmode none
attr recordingmode vector
attr source "packetLength(merge(packetPushedOut, packetPulledOut))"
attr title "outgoing packet lengths"
attr unit b
vector 199 UseCase2.switchTSN2.eth[0].macLayer.queue queueingTime:vector ETV
attr interpolationmode none
attr recordingmode vector
attr source queueingTime(packetPulled)
attr title "queueing times"
attr unit s
vector 200 UseCase2.switchTSN2.eth[0].macLayer.queue outgoingPacketLengths:vector ETV
attr interpolationmode none
attr recordingmode vector
attr source packetLength(packetPulled)
attr title "outgoing packet lengths"
attr unit b
vector 201 UseCase2.switchTSN2.eth[0].macLayer.server incomingPacketLengths:vector ETV
attr interpolationmode none
attr recordingmode vector
attr source packetLength(packetPulled)
attr title "incoming packet lengths"
attr unit b
vector 202 UseCase2.switchTSN2.eth[0].macLayer.server outgoingPacketLengths:vector ETV
attr interpolationmode none
attr recordingmode vector
attr source packetLength(packetPushed)
attr title "outgoing packet lengths"
attr unit b
vector 203 UseCase2.switchTSN2.eth[0].macLayer.outboundEmitter incomingPacketLengths:vector ETV
attr interpolationmode none
attr recordingmode vector
attr source "packetLength(merge(packetPushedIn, packetPulledIn))"
attr title "incoming packet lengths"
attr unit b
vector 204 UseCase2.switchTSN2.eth[0].macLayer.outboundEmitter outgoingPacketLengths:vector ETV
attr interpolationmode none
attr recordingmode vector
attr source "packetLength(merge(packetPushedOut, packetPulledOut))"
attr title "outgoing packet lengths"
attr unit b
vector 205 UseCase2.switchTSN2.eth[0].phyLayer.phyHeaderInserter incomingPacketLengths:vector ETV
attr interpolationmode none
attr recordingmode vector
attr source "packetLength(merge(packetPushedIn, packetPulledIn))"
attr title "incoming packet lengths"
attr unit b
vector 206 UseCase2.switchTSN2.eth[0].phyLayer.phyHeaderInserter outgoingPacketLengths:vector ETV
attr interpolationmode none
attr recordingmode vector
attr source "packetLength(merge(packetPushedOut, packetPulledOut))"
attr title "outgoing packet lengths"
attr unit b
vector 207 UseCase2.switchTSN2.eth[0].phyLayer.outboundEmitter incomingPacketLengths:vector ETV
attr interpolationmode none
attr recordingmode vector
attr source "packetLength(merge(packetPushedIn, packetPulledIn))"
attr title "incoming packet lengths"
attr unit b
vector 208 UseCase2.switchTSN2.eth[0].phyLayer.outboundEmitter outgoingPacketLengths:vector ETV
attr interpolationmode none
attr recordingmode vector
attr source "packetLength(merge(packetPushedOut, packetPulledOut))"
attr title "outgoing packet lengths"
attr unit b
vector 209 UseCase2.Actuator2.eth[0].macLayer.queue queueingTime:vector ETV
attr interpolationmode none
attr recordingmode vector
attr source queueingTime(packetPulled)
attr title "queueing times"
attr unit s
vector 210 UseCase2.Actuator2.eth[0].macLayer.queue outgoingPacketLengths:vector ETV
attr interpolationmode none
attr recordingmode vector
attr source packetLength(packetPulled)
attr title "outgoing packet lengths"
attr unit b
vector 211 UseCase2.Actuator2.eth[0].macLayer.server incomingPacketLengths:vector ETV
attr interpolationmode none
attr recordingmode vector
attr source packetLength(packetPulled)
attr title "incoming packet lengths"
attr unit b
vector 212 UseCase2.Actuator2.eth[0].macLayer.server outgoingPacketLengths:vector ETV
attr interpolationmode none
attr recordingmode vector
attr source packetLength(packetPushed)
attr title "outgoing packet lengths"
attr unit b
vector 213 UseCase2.Actuator2.eth[0].macLayer.outboundEmitter incomingPacketLengths:vector ETV
attr interpolationmode none
attr recordingmode vector
attr source "packetLength(merge(packetPushedIn, packetPulledIn))"
attr title "incoming packet lengths"
attr unit b
vector 214 UseCase2.Actuator2.eth[0].macLayer.outboundEmitter outgoingPacketLengths:vector ETV
attr interpolationmode none
attr recordingmode vector
attr source "packetLength(merge(packetPushedOut, packetPulledOut))"
attr title "outgoing packet lengths"
attr unit b
vector 215 UseCase2.Actuator2.eth[0].phyLayer.phyHeaderInserter incomingPacketLengths:vector ETV
attr interpolationmode none
attr recordingmode vector
attr source "packetLength(merge(packetPushedIn, packetPulledIn))"
attr title "incoming packet lengths"
attr unit b
vector 216 UseCase2.Actuator2.eth[0].phyLayer.phyHeaderInserter outgoingPacketLengths:vector ETV
attr interpolationmode none
attr recordingmode vector
attr source "packetLength(merge(packetPushedOut, packetPulledOut))"
attr title "outgoing packet lengths"
attr unit b
vector 217 UseCase2.Actuator2.eth[0].phyLayer.outboundEmitter incomingPacketLengths:vector ETV
attr interpolationmode none
attr recordingmode vector
attr source "packetLength(merge(packetPushedIn, packetPulledIn))"
attr title "incoming packet lengths"
attr unit b
vector 218 UseCase2.Actuator2.eth[0].phyLayer.outboundEmitter outgoingPacketLengths:vector ETV
attr interpolationmode none
attr recordingmode vector
attr source "packetLength(merge(packetPushedOut, packetPulledOut))"
attr title "outgoing packet lengths"
attr unit b
vector 219 UseCase2.Actuator.eth[0].phyLayer.transmitter transmissionTime:vector ETV
attr interpolationmode none
attr recordingmode vector
attr source packetDuration(transmissionEnded)
attr title "transmission time"
attr unit s
vector 220 UseCase2.Sensor.eth[0].phyLayer.transmitter transmissionTime:vector ETV
attr interpolationmode none
attr recordingmode vector
attr source packetDuration(transmissionEnded)
attr title "transmission time"
attr unit s
vector 221 UseCase2.switchTSN2.eth[0].phyLayer.transmitter transmissionTime:vector ETV
attr interpolationmode none
attr recordingmode vector
attr source packetDuration(transmissionEnded)
attr title "transmission time"
attr unit s
vector 222 UseCase2.Actuator2.eth[0].phyLayer.transmitter transmissionTime:vector ETV
attr interpolationmode none
attr recordingmode vector
attr source packetDuration(transmissionEnded)
attr title "transmission time"
attr unit s
vector 223 UseCase2.switchTSN.eth[2].phyLayer.receiver receptionTime:vector ETV
attr interpolationmode none
attr recordingmode vector
attr source packetDuration(receptionEnded)
attr title "reception time"
attr unit s
vector 224 UseCase2.switchTSN.eth[2].phyLayer.inboundEmitter incomingPacketLengths:vector ETV
attr interpolationmode none
attr recordingmode vector
attr source "packetLength(merge(packetPushedIn, packetPulledIn))"
attr title "incoming packet lengths"
attr unit b
vector 225 UseCase2.switchTSN.eth[2].phyLayer.inboundEmitter outgoingPacketLengths:vector ETV
attr interpolationmode none
attr recordingmode vector
attr source "packetLength(merge(packetPushedOut, packetPulledOut))"
attr title "outgoing packet lengths"
attr unit b
vector 226 UseCase2.switchTSN.eth[2].phyLayer.phyHeaderChecker incomingPacketLengths:vector ETV
attr interpolationmode none
attr recordingmode vector
attr source "packetLength(merge(packetPushedIn, packetPulledIn))"
attr title "incoming packet lengths"
attr unit b
vector 227 UseCase2.switchTSN.eth[2].phyLayer.phyHeaderChecker outgoingPacketLengths:vector ETV
attr interpolationmode none
attr recordingmode vector
attr source "packetLength(merge(packetPushedOut, packetPulledOut))"
attr title "outgoing packet lengths"
attr unit b
vector 228 UseCase2.switchTSN.eth[2].macLayer.inboundEmitter incomingPacketLengths:vector ETV
attr interpolationmode none
attr recordingmode vector
attr source "packetLength(merge(packetPushedIn, packetPulledIn))"
attr title "incoming packet lengths"
attr unit b
vector 229 UseCase2.switchTSN.eth[2].macLayer.inboundEmitter outgoingPacketLengths:vector ETV
attr interpolationmode none
attr recordingmode vector
attr source "packetLength(merge(packetPushedOut, packetPulledOut))"
attr title "outgoing packet lengths"
attr unit b
vector 230 UseCase2.switchTSN.eth[2].macLayer.fcsChecker incomingPacketLengths:vector ETV
attr interpolationmode none
attr recordingmode vector
attr source "packetLength(merge(packetPushedIn, packetPulledIn))"
attr title "incoming packet lengths"
attr unit b
vector 231 UseCase2.switchTSN.eth[2].macLayer.fcsChecker outgoingPacketLengths:vector ETV
attr interpolationmode none
attr recordingmode vector
attr source "packetLength(merge(packetPushedOut, packetPulledOut))"
attr title "outgoing packet lengths"
attr unit b
vector 232 UseCase2.switchTSN.ethernet.fcsChecker incomingPacketLengths:vector ETV
attr interpolationmode none
attr recordingmode vector
attr source "packetLength(merge(packetPushedIn, packetPulledIn))"
attr title "incoming packet lengths"
attr unit b
vector 233 UseCase2.switchTSN.ethernet.fcsChecker outgoingPacketLengths:vector ETV
attr interpolationmode none
attr recordingmode vector
attr source "packetLength(merge(packetPushedOut, packetPulledOut))"
attr title "outgoing packet lengths"
attr unit b
vector 234 UseCase2.switchTSN.ethernet.macHeaderChecker incomingPacketLengths:vector ETV
attr interpolationmode none
attr recordingmode vector
attr source "packetLength(merge(packetPushedIn, packetPulledIn))"
attr title "incoming packet lengths"
attr unit b
vector 235 UseCase2.switchTSN.ethernet.macHeaderChecker outgoingPacketLengths:vector ETV
attr interpolationmode none
attr recordingmode vector
attr source "packetLength(merge(packetPushedOut, packetPulledOut))"
attr title "outgoing packet lengths"
attr unit b
vector 236 UseCase2.switchTSN.bridging.interfaceRelay.learner incomingPacketLengths:vector ETV
attr interpolationmode none
attr recordingmode vector
attr source "packetLength(merge(packetPushedIn, packetPulledIn))"
attr title "incoming packet lengths"
attr unit b
vector 237 UseCase2.switchTSN.bridging.interfaceRelay.learner outgoingPacketLengths:vector ETV
attr interpolationmode none
attr recordingmode vector
attr source "packetLength(merge(packetPushedOut, packetPulledOut))"
attr title "outgoing packet lengths"
attr unit b
vector 238 UseCase2.switchTSN.eth[1].phyLayer.receiver receptionTime:vector ETV
attr interpolationmode none
attr recordingmode vector
attr source packetDuration(receptionEnded)
attr title "reception time"
attr unit s
vector 239 UseCase2.switchTSN.eth[1].phyLayer.inboundEmitter incomingPacketLengths:vector ETV
attr interpolationmode none
attr recordingmode vector
attr source "packetLength(merge(packetPushedIn, packetPulledIn))"
attr title "incoming packet lengths"
attr unit b
vector 240 UseCase2.switchTSN.eth[1].phyLayer.inboundEmitter outgoingPacketLengths:vector ETV
attr interpolationmode none
attr recordingmode vector
attr source "packetLength(merge(packetPushedOut, packetPulledOut))"
attr title "outgoing packet lengths"
attr unit b
vector 241 UseCase2.switchTSN.eth[1].phyLayer.phyHeaderChecker incomingPacketLengths:vector ETV
attr interpolationmode none
attr recordingmode vector
attr source "packetLength(merge(packetPushedIn, packetPulledIn))"
attr title "incoming packet lengths"
attr unit b
vector 242 UseCase2.switchTSN.eth[1].phyLayer.phyHeaderChecker outgoingPacketLengths:vector ETV
attr interpolationmode none
attr recordingmode vector
attr source "packetLength(merge(packetPushedOut, packetPulledOut))"
attr title "outgoing packet lengths"
attr unit b
vector 243 UseCase2.switchTSN.eth[1].macLayer.inboundEmitter incomingPacketLengths:vector ETV
attr interpolationmode none
attr recordingmode vector
attr source "packetLength(merge(packetPushedIn, packetPulledIn))"
attr title "incoming packet lengths"
attr unit b
vector 244 UseCase2.switchTSN.eth[1].macLayer.inboundEmitter outgoingPacketLengths:vector ETV
attr interpolationmode none
attr recordingmode vector
attr source "packetLength(merge(packetPushedOut, packetPulledOut))"
attr title "outgoing packet lengths"
attr unit b
vector 245 UseCase2.switchTSN.eth[1].macLayer.fcsChecker incomingPacketLengths:vector ETV
attr interpolationmode none
attr recordingmode vector
attr source "packetLength(merge(packetPushedIn, packetPulledIn))"
attr title "incoming packet lengths"
attr unit b
vector 246 UseCase2.switchTSN.eth[1].macLayer.fcsChecker outgoingPacketLengths:vector ETV
attr interpolationmode none
attr recordingmode vector
attr source "packetLength(merge(packetPushedOut, packetPulledOut))"
attr title "outgoing packet lengths"
attr unit b
vector 247 UseCase2.DSTT2.eth[1].mac rxPkOk:vector(packetBytes) ETV
attr interpolationmode none
attr recordingmode vector(packetBytes)
attr source rxPkOk
attr title "packets received OK, packetBytes"
vector 248 UseCase2.DSTT2.eth[1].mac passedUpPk:vector(packetBytes) ETV
attr interpolationmode none
attr recordingmode vector(packetBytes)
attr source packetSentToUpper
attr title "packets passed to higher layer, packetBytes"
vector 249 UseCase2.switchTSN2.eth[1].phyLayer.receiver receptionTime:vector ETV
attr interpolationmode none
attr recordingmode vector
attr source packetDuration(receptionEnded)
attr title "reception time"
attr unit s
vector 250 UseCase2.switchTSN2.eth[1].phyLayer.inboundEmitter incomingPacketLengths:vector ETV
attr interpolationmode none
attr recordingmode vector
attr source "packetLength(merge(packetPushedIn, packetPulledIn))"
attr title "incoming packet lengths"
attr unit b
vector 251 UseCase2.switchTSN2.eth[1].phyLayer.inboundEmitter outgoingPacketLengths:vector ETV
attr interpolationmode none
attr recordingmode vector
attr source "packetLength(merge(packetPushedOut, packetPulledOut))"
attr title "outgoing packet lengths"
attr unit b
vector 252 UseCase2.switchTSN2.eth[1].phyLayer.phyHeaderChecker incomingPacketLengths:vector ETV
attr interpolationmode none
attr recordingmode vector
attr source "packetLength(merge(packetPushedIn, packetPulledIn))"
attr title "incoming packet lengths"
attr unit b
vector 253 UseCase2.switchTSN2.eth[1].phyLayer.phyHeaderChecker outgoingPacketLengths:vector ETV
attr interpolationmode none
attr recordingmode vector
attr source "packetLength(merge(packetPushedOut, packetPulledOut))"
attr title "outgoing packet lengths"
attr unit b
vector 254 UseCase2.switchTSN2.eth[1].macLayer.inboundEmitter incomingPacketLengths:vector ETV
attr interpolationmode none
attr recordingmode vector
attr source "packetLength(merge(packetPushedIn, packetPulledIn))"
attr title "incoming packet lengths"
attr unit b
vector 255 UseCase2.switchTSN2.eth[1].macLayer.inboundEmitter outgoingPacketLengths:vector ETV
attr interpolationmode none
attr recordingmode vector
attr source "packetLength(merge(packetPushedOut, packetPulledOut))"
attr title "outgoing packet lengths"
attr unit b
vector 256 UseCase2.switchTSN2.eth[1].macLayer.fcsChecker incomingPacketLengths:vector ETV
attr interpolationmode none
attr recordingmode vector
attr source "packetLength(merge(packetPushedIn, packetPulledIn))"
attr title "incoming packet lengths"
attr unit b
vector 257 UseCase2.switchTSN2.eth[1].macLayer.fcsChecker outgoingPacketLengths:vector ETV
attr interpolationmode none
attr recordingmode vector
attr source "packetLength(merge(packetPushedOut, packetPulledOut))"
attr title "outgoing packet lengths"
attr unit b
vector 258 UseCase2.switchTSN2.ethernet.fcsChecker incomingPacketLengths:vector ETV
attr interpolationmode none
attr recordingmode vector
attr source "packetLength(merge(packetPushedIn, packetPulledIn))"
attr title "incoming packet lengths"
attr unit b
vector 259 UseCase2.switchTSN2.ethernet.fcsChecker outgoingPacketLengths:vector ETV
attr interpolationmode none
attr recordingmode vector
attr source "packetLength(merge(packetPushedOut, packetPulledOut))"
attr title "outgoing packet lengths"
attr unit b
vector 260 UseCase2.switchTSN2.ethernet.macHeaderChecker incomingPacketLengths:vector ETV
attr interpolationmode none
attr recordingmode vector
attr source "packetLength(merge(packetPushedIn, packetPulledIn))"
attr title "incoming packet lengths"
attr unit b
vector 261 UseCase2.switchTSN2.ethernet.macHeaderChecker outgoingPacketLengths:vector ETV
attr interpolationmode none
attr recordingmode vector
attr source "packetLength(merge(packetPushedOut, packetPulledOut))"
attr title "outgoing packet lengths"
attr unit b
vector 262 UseCase2.switchTSN2.bridging.interfaceRelay.learner incomingPacketLengths:vector ETV
attr interpolationmode none
attr recordingmode vector
attr source "packetLength(merge(packetPushedIn, packetPulledIn))"
attr title "incoming packet lengths"
attr unit b
vector 263 UseCase2.switchTSN2.bridging.interfaceRelay.learner outgoingPacketLengths:vector ETV
attr interpolationmode none
attr recordingmode vector
attr source "packetLength(merge(packetPushedOut, packetPulledOut))"
attr title "outgoing packet lengths"
attr unit b
vector 264 UseCase2.DSTT2.ethernet decapPk:vector(packetBytes) ETV
attr interpolationmode none
attr recordingmode vector(packetBytes)
attr source decapPk
attr title "packets decapsulated, packetBytes"
vector 265 UseCase2.DSTT2.udp packetSent:vector(packetBytes) ETV
attr interpolationmode none
attr recordingmode vector(packetBytes)
attr source packetSent
attr title "packets sent, packetBytes"
vector 266 UseCase2.DSTT2.ethernet encapPk:vector(packetBytes) ETV
attr interpolationmode none
attr recordingmode vector(packetBytes)
attr source encapPk
attr title "packets encapsulated, packetBytes"
vector 267 UseCase2.DSTT2.eth[0].queue incomingPacketLengths:vector ETV
attr interpolationmode none
attr recordingmode vector
attr source packetLength(packetPushStarted)
attr title "incoming packet lengths"
attr unit b
vector 268 UseCase2.DSTT2.eth[0].queue queueingTime:vector ETV
attr interpolationmode none
attr recordingmode vector
attr source queueingTime(packetPulled)
attr title "queueing times"
attr unit s
vector 269 UseCase2.DSTT2.eth[0].queue outgoingPacketLengths:vector ETV
attr interpolationmode none
attr recordingmode vector
attr source packetLength(packetPulled)
attr title "outgoing packet lengths"
attr unit b
vector 270 UseCase2.DSTT2.eth[0].mac packetReceivedFromUpper:vector(packetBytes) ETV
attr interpolationmode none
attr recordingmode vector(packetBytes)
attr source packetReceivedFromUpper
attr title "packet bytes from higher layer, packetBytes"
vector 271 UseCase2.DSTT2.eth[0].mac txPk:vector(packetBytes) ETV
attr interpolationmode none
attr recordingmode vector(packetBytes)
attr source packetSentToLower
attr title "packets transmitted, packetBytes"
vector 272 UseCase2.ue2.eth[0].mac rxPkOk:vector(packetBytes) ETV
attr interpolationmode none
attr recordingmode vector(packetBytes)
attr source rxPkOk
attr title "packets received OK, packetBytes"
vector 273 UseCase2.ue2.eth[0].mac passedUpPk:vector(packetBytes) ETV
attr interpolationmode none
attr recordingmode vector(packetBytes)
attr source packetSentToUpper
attr title "packets passed to higher layer, packetBytes"
vector 274 UseCase2.ue2.encap decapPk:vector(packetBytes) ETV
attr interpolationmode none
attr recordingmode vector(packetBytes)
attr source decapPk
attr title "packets decapsulated, packetBytes"
vector 275 UseCase2.ue2.cellularNic.pdcpRrc receivedPacketFromUpperLayer:vector(packetBytes) ETV
attr interpolationmode none
attr recordingmode vector(packetBytes)
attr source receivedPacketFromUpperLayer
vector 276 UseCase2.ue2.cellularNic.pdcpRrc sentPacketToLowerLayer:vector(packetBytes) ETV
attr interpolationmode none
attr recordingmode vector(packetBytes)
attr source sentPacketToLowerLayer
vector 277 UseCase2.ue2.cellularNic.nrRlc.um receivedPacketFromUpperLayer:vector(packetBytes) ETV
attr interpolationmode none
attr recordingmode vector(packetBytes)
attr source receivedPacketFromUpperLayer
vector 278 UseCase2.ue2.cellularNic.nrMac receivedPacketFromUpperLayer:vector(packetBytes) ETV
attr interpolationmode none
attr recordingmode vector(packetBytes)
attr source receivedPacketFromUpperLayer
vector 279 UseCase2.switchTSN2.eth[1].macLayer.queue incomingPacketLengths:vector ETV
attr interpolationmode none
attr recordingmode vector
attr source packetLength(packetPushStarted)
attr title "incoming packet lengths"
attr unit b
vector 280 UseCase2.switchTSN2.eth[1].macLayer.queue queueingTime:vector ETV
attr interpolationmode none
attr recordingmode vector
attr source queueingTime(packetPulled)
attr title "queueing times"
attr unit s
vector 281 UseCase2.switchTSN2.eth[1].macLayer.queue outgoingPacketLengths:vector ETV
attr interpolationmode none
attr recordingmode vector
attr source packetLength(packetPulled)
attr title "outgoing packet lengths"
attr unit b
vector 282 UseCase2.switchTSN2.eth[1].macLayer.server incomingPacketLengths:vector ETV
attr interpolationmode none
attr recordingmode vector
attr source packetLength(packetPulled)
attr title "incoming packet lengths"
attr unit b
vector 283 UseCase2.switchTSN2.eth[1].macLayer.server outgoingPacketLengths:vector ETV
attr interpolationmode none
attr recordingmode vector
attr source packetLength(packetPushed)
attr title "outgoing packet lengths"
attr unit b
vector 284 UseCase2.switchTSN2.eth[1].macLayer.outboundEmitter incomingPacketLengths:vector ETV
attr interpolationmode none
attr recordingmode vector
attr source "packetLength(merge(packetPushedIn, packetPulledIn))"
attr title "incoming packet lengths"
attr unit b
vector 285 UseCase2.switchTSN2.eth[1].macLayer.outboundEmitter outgoingPacketLengths:vector ETV
attr interpolationmode none
attr recordingmode vector
attr source "packetLength(merge(packetPushedOut, packetPulledOut))"
attr title "outgoing packet lengths"
attr unit b
vector 286 UseCase2.switchTSN2.eth[1].phyLayer.phyHeaderInserter incomingPacketLengths:vector ETV
attr interpolationmode none
attr recordingmode vector
attr source "packetLength(merge(packetPushedIn, packetPulledIn))"
attr title "incoming packet lengths"
attr unit b
vector 287 UseCase2.switchTSN2.eth[1].phyLayer.phyHeaderInserter outgoingPacketLengths:vector ETV
attr interpolationmode none
attr recordingmode vector
attr source "packetLength(merge(packetPushedOut, packetPulledOut))"
attr title "outgoing packet lengths"
attr unit b
vector 288 UseCase2.switchTSN2.eth[1].phyLayer.outboundEmitter incomingPacketLengths:vector ETV
attr interpolationmode none
attr recordingmode vector
attr source "packetLength(merge(packetPushedIn, packetPulledIn))"
attr title "incoming packet lengths"
attr unit b
vector 289 UseCase2.switchTSN2.eth[1].phyLayer.outboundEmitter outgoingPacketLengths:vector ETV
attr interpolationmode none
attr recordingmode vector
attr source "packetLength(merge(packetPushedOut, packetPulledOut))"
attr title "outgoing packet lengths"
attr unit b
vector 290 UseCase2.switchTSN.ethernet.macHeaderInserter incomingPacketLengths:vector ETV
attr interpolationmode none
attr recordingmode vector
attr source "packetLength(merge(packetPushedIn, packetPulledIn))"
attr title "incoming packet lengths"
attr unit b
vector 291 UseCase2.switchTSN.ethernet.macHeaderInserter outgoingPacketLengths:vector ETV
attr interpolationmode none
attr recordingmode vector
attr source "packetLength(merge(packetPushedOut, packetPulledOut))"
attr title "outgoing packet lengths"
attr unit b
vector 292 UseCase2.switchTSN.ethernet.paddingInserter incomingPacketLengths:vector ETV
attr interpolationmode none
attr recordingmode vector
attr source "packetLength(merge(packetPushedIn, packetPulledIn))"
attr title "incoming packet lengths"
attr unit b
vector 293 UseCase2.switchTSN.ethernet.paddingInserter outgoingPacketLengths:vector ETV
attr interpolationmode none
attr recordingmode vector
attr source "packetLength(merge(packetPushedOut, packetPulledOut))"
attr title "outgoing packet lengths"
attr unit b
vector 294 UseCase2.switchTSN.ethernet.fcsInserter incomingPacketLengths:vector ETV
attr interpolationmode none
attr recordingmode vector
attr source "packetLength(merge(packetPushedIn, packetPulledIn))"
attr title "incoming packet lengths"
attr unit b
vector 295 UseCase2.switchTSN.ethernet.fcsInserter outgoingPacketLengths:vector ETV
attr interpolationmode none
attr recordingmode vector
attr source "packetLength(merge(packetPushedOut, packetPulledOut))"
attr title "outgoing packet lengths"
attr unit b
vector 296 UseCase2.switchTSN.eth[2].macLayer.queue incomingPacketLengths:vector ETV
attr interpolationmode none
attr recordingmode vector
attr source packetLength(packetPushStarted)
attr title "incoming packet lengths"
attr unit b
vector 297 UseCase2.switchTSN.eth[1].macLayer.queue incomingPacketLengths:vector ETV
attr interpolationmode none
attr recordingmode vector
attr source packetLength(packetPushStarted)
attr title "incoming packet lengths"
attr unit b
vector 298 UseCase2.switchTSN.eth[2].macLayer.queue queueingTime:vector ETV
attr interpolationmode none
attr recordingmode vector
attr source queueingTime(packetPulled)
attr title "queueing times"
attr unit s
vector 299 UseCase2.switchTSN.eth[2].macLayer.queue outgoingPacketLengths:vector ETV
attr interpolationmode none
attr recordingmode vector
attr source packetLength(packetPulled)
attr title "outgoing packet lengths"
attr unit b
vector 300 UseCase2.switchTSN.eth[2].macLayer.server incomingPacketLengths:vector ETV
attr interpolationmode none
attr recordingmode vector
attr source packetLength(packetPulled)
attr title "incoming packet lengths"
attr unit b
vector 301 UseCase2.switchTSN.eth[2].macLayer.server outgoingPacketLengths:vector ETV
attr interpolationmode none
attr recordingmode vector
attr source packetLength(packetPushed)
attr title "outgoing packet lengths"
attr unit b
vector 302 UseCase2.switchTSN.eth[2].macLayer.outboundEmitter incomingPacketLengths:vector ETV
attr interpolationmode none
attr recordingmode vector
attr source "packetLength(merge(packetPushedIn, packetPulledIn))"
attr title "incoming packet lengths"
attr unit b
vector 303 UseCase2.switchTSN.eth[2].macLayer.outboundEmitter outgoingPacketLengths:vector ETV
attr interpolationmode none
attr recordingmode vector
attr source "packetLength(merge(packetPushedOut, packetPulledOut))"
attr title "outgoing packet lengths"
attr unit b
vector 304 UseCase2.switchTSN.eth[2].phyLayer.phyHeaderInserter incomingPacketLengths:vector ETV
attr interpolationmode none
attr recordingmode vector
attr source "packetLength(merge(packetPushedIn, packetPulledIn))"
attr title "incoming packet lengths"
attr unit b
vector 305 UseCase2.switchTSN.eth[2].phyLayer.phyHeaderInserter outgoingPacketLengths:vector ETV
attr interpolationmode none
[...]
694	79516592 6896 2485219 2789823 178.034503412 200 221 0 28160 2467797.3285179 39655138860.471
695	79523488 6896 2485219 2789823 178.034503412 200 221 0 28160 2467797.3285179 39655138860.471
696	79530384 6896 2485219 2789823 178.034503412 200 221 0 28320 2495957.3285179 40441366060.471
697	79537280 6896 2485219 2789823 178.034503412 200 221 0 28320 2495957.3285179 40441366060.471
698	79544176 6896 2485219 2789823 178.034503412 200 221 0 29920 2631183.0537249 44995124723.85
699	79551072 8019 2483315 2789823 177.99994557655 200 222 0 0.001392 0.274544 0.000379011328
700	79559091 7887 2484857 2789823 177.99994557655 200 222 0 0.002672 0.275824 0.000462610688
701	79566978 7887 2484858 2789823 177.99994557655 200 222 0 0.002672 0.275824 0.000462610688
702	79574865 7444 2483314 2789823 177.99994557655 200 222 0 12640 2490720 31198848000
703	79582309 7356 2484854 2789823 177.99994557655 200 222 0 24160 2502240 38029747200
704	79589665 7356 2484855 2789823 177.99994557655 200 222 0 24160 2502240 38029747200
705	79597021 7444 2483315 2789823 177.99994567255 200 222 0 12640 2490720 31198848000
706	79604465 7444 2483315 2789823 177.99994567255 200 222 0 12640 2490720 31198848000
707	79611909 7444 2483315 2789823 177.99994567255 200 222 0 12640 2490720 31198848000
708	79619353 7444 2483315 2789823 177.99994567255 200 222 0 12640 2490720 31198848000
709	79626797 7444 2483315 2789823 177.99994567255 200 222 0 12640 2490720 31198848000
710	79634241 7444 2483315 2789823 177.99994567255 200 222 0 12640 2490720 31198848000
711	79641685 7444 2483315 2789823 177.99994567255 200 222 0 13920 2745440 37901132800
712	79649129 7444 2483315 2789823 177.99994567255 200 222 0 13920 2745440 37901132800
713	79656573 7444 2483315 2789823 177.99994567255 200 222 0 13920 2745440 37901132800
714	79664017 7356 2484857 2789823 177.99994567255 200 222 0 24160 2502240 38029747200
715	79671373 7356 2484857 2789823 177.99994567255 200 222 0 24160 2502240 38029747200
716	79678729 7356 2484857 2789823 177.99994567255 200 222 0 24160 2502240 38029747200
717	79686085 7356 2484857 2789823 177.99994567255 200 222 0 24160 2502240 38029747200
718	79693441 7356 2484857 2789823 177.99994567255 200 222 0 24160 2502240 38029747200
719	79700797 7356 2484857 2789823 177.99994567255 200 222 0 24160 2502240 38029747200
720	79708153 7356 2484857 2789823 177.99994567255 200 222 0 26720 2758240 46261068800
721	79715509 7356 2484857 2789823 177.99994567255 200 222 0 26720 2758240 46261068800
722	79722865 7356 2484857 2789823 177.99994567255 200 222 0 26720 2758240 46261068800
723	79730221 7356 2484858 2789823 177.99994567255 200 222 0 24160 2502240 38029747200
724	79737577 7356 2484858 2789823 177.99994567255 200 222 0 24160 2502240 38029747200
725	79744933 7356 2484858 2789823 177.99994567255 200 222 0 24160 2502240 38029747200
726	79752289 7356 2484858 2789823 177.99994567255 200 222 0 24160 2502240 38029747200
727	79759645 7356 2484858 2789823 177.99994567255 200 222 0 24160 2502240 38029747200
728	79767001 7356 2484858 2789823 177.99994567255 200 222 0 24160 2502240 38029747200
729	79774357 7356 2484858 2789823 177.99994567255 200 222 0 26720 2758240 46261068800
730	79781713 7356 2484858 2789823 177.99994567255 200 222 0 26720 2758240 46261068800
731	79789069 7356 2484858 2789823 177.99994567255 200 222 0 26720 2758240 46261068800
732	79796425 8041 2483325 2789823 177.99994641055 200 222 0 0.001824 0.360864 0.0006545664
733	79804466 7444 2483316 2789823 177.99994648855 200 222 0 13920 2745440 37901132800
734	79811910 7356 2484860 2789823 177.99994648855 200 222 0 26720 2758240 46261068800
735	79819266 7356 2484861 2789823 177.99994648855 200 222 0 26720 2758240 46261068800
736	79826622 7356 2484869 2789823 177.99994653855 200 222 0 26720 2758240 46261068800
737	79833978 7356 2484869 2789823 177.99994653855 200 222 0 26720 2758240 46261068800
738	79841334 7356 2484869 2789823 177.99994653855 200 222 0 26720 2758240 46261068800
739	79848690 7356 2484869 2789823 177.99994653855 200 222 0 26720 2758240 46261068800
740	79856046 7356 2484869 2789823 177.99994653855 200 222 0 24160 2502240 38029747200
741	79863402 7356 2484869 2789823 177.99994653855 200 222 0 24160 2502240 38029747200
742	79870758 7356 2484869 2789823 177.99994653855 200 222 0 24160 2502240 38029747200
743	79878114 7356 2484869 2789823 177.99994653855 200 222 0 24160 2502240 38029747200
744	79885470 7356 2484869 2789823 177.99994653855 200 222 0 24160 2502240 38029747200
745	79892826 7356 2484869 2789823 177.99994653855 200 222 0 24160 2502240 38029747200
746	79900182 7356 2484869 2789823 177.99994653855 200 222 0 22880 2374240 34216371200
747	79907538 7356 2484869 2789823 177.99994653855 200 222 0 22880 2374240 34216371200
748	79914894 7202 2484869 2789823 177.99994653855 200 222 0 18400 1926240 22456550400
749	79922096 7356 2484870 2789823 177.99994653855 200 222 0 26720 2758240 46261068800
750	79929452 7356 2484870 2789823 177.99994653855 200 222 0 26720 2758240 46261068800
751	79936808 7356 2484870 2789823 177.99994653855 200 222 0 26720 2758240 46261068800
752	79944164 7356 2484870 2789823 177.99994653855 200 222 0 26720 2758240 46261068800
753	79951520 7356 2484870 2789823 177.99994653855 200 222 0 24160 2502240 38029747200
754	79958876 7356 2484870 2789823 177.99994653855 200 222 0 24160 2502240 38029747200
755	79966232 7356 2484870 2789823 177.99994653855 200 222 0 24160 2502240 38029747200
756	79973588 7356 2484870 2789823 177.99994653855 200 222 0 24160 2502240 38029747200
757	79980944 7356 2484870 2789823 177.99994653855 200 222 0 24160 2502240 38029747200
758	79988300 7356 2484870 2789823 177.99994653855 200 222 0 24160 2502240 38029747200
759	79995656 7356 2484870 2789823 177.99994653855 200 222 0 22880 2374240 34216371200
760	80003012 7356 2484870 2789823 177.99994653855 200 222 0 22880 2374240 34216371200
761	80010368 7202 2484870 2789823 177.99994653855 200 222 0 18400 1926240 22456550400
762	80017570 7444 2483325 2789823 177.99994653855 200 222 0 16960 3353920 56544563200
763	80025014 7444 2483325 2789823 177.99994653855 200 222 0 16960 3353920 56544563200
764	80032458 7444 2483338 2789823 177.99994757855 200 222 0 18240 3608640 65456640000
765	80039902 5897 2483257 2789823 177.9095 200 222 0 16960 3353920 56544563200
766	80045799 7599 2483257 2789823 177.909500784 200 222 0 0.001824 0.360864 0.0006545664
767	80053398 6781 2483257 2789823 177.90950088 200 222 0 16960 3353920 56544563200
768	80060179 7356 2483267 2789823 177.90950141 200 222 0 0.001392 0.274544 0.000379011328
769	80067535 6781 2483260 2789823 177.90950192 200 222 0 18240 3608640 65456640000
770	80074316 6781 2483267 2789823 177.90950197 200 222 0 12480 2462400 30487449600
771	80081097 6781 2483267 2789823 177.90950197 200 222 0 12480 2462400 30487449600
772	80087878 7002 2483278 2789823 177.909502786 200 222 0 13920 2745440 37901132800
773	80094880 7002 2483279 2789823 177.909502836 200 222 0 13920 2745440 37901132800
774	80101882 7002 2483279 2789823 177.909502836 200 222 0 13920 2745440 37901132800
775	80108884 7002 2483279 2789823 177.909502836 200 222 0 13920 2745440 37901132800
776	80115886 7002 2483279 2789823 177.909502836 200 222 0 13920 2745440 37901132800
777	80122888 7002 2483279 2789823 177.909502836 200 222 0 12640 2490720 31198848000
778	80129890 7002 2483279 2789823 177.909502836 200 222 0 12640 2490720 31198848000
779	80136892 7002 2483279 2789823 177.909502836 200 222 0 12640 2490720 31198848000
780	80143894 7002 2483279 2789823 177.909502836 200 222 0 12640 2490720 31198848000
781	80150896 7002 2483279 2789823 177.909502836 200 222 0 12640 2490720 31198848000
782	80157898 7427 2485220 2789823 178.009503412 200 221 0 0.002672 0.27456641796679 0.00045747168218477
783	80165325 6896 2485219 2789823 178.009503412 200 221 0 24160 2490809.7617011 37608088432.966
784	80172221 6896 2485220 2789823 178.009503508 200 221 0 24160 2490809.775205 37608088776.77
785	80179117 6896 2485220 2789823 178.009503508 200 221 0 24160 2490809.775205 37608088776.77
786	80186013 6896 2485220 2789823 178.009503508 200 221 0 24160 2490809.775205 37608088776.77
787	80192909 6896 2485220 2789823 178.009503508 200 221 0 24160 2490809.775205 37608088776.77
788	80199805 6896 2485220 2789823 178.009503508 200 221 0 24160 2490809.775205 37608088776.77
789	80206701 6896 2485220 2789823 178.009503508 200 221 0 24160 2490809.775205 37608088776.77
790	80213597 6896 2485220 2789823 178.009503508 200 221 0 26720 2745664.1946722 45747168642.925
791	80220493 6896 2485220 2789823 178.009503508 200 221 0 26720 2745664.1946722 45747168642.925
792	80227389 6896 2485220 2789823 178.009503508 200 221 0 26720 2745664.1946722 45747168642.925
793	80234285 6896 2485222 2789823 178.009504324 200 221 0 26720 2745664.3222105 45747172250.794
794	80241181 6896 2485225 2789823 178.009504374 200 221 0 26720 2745664.3300254 45747172471.868
795	80248077 6896 2485225 2789823 178.009504374 200 221 0 26720 2745664.3300254 45747172471.868
796	80254973 6896 2485225 2789823 178.009504374 200 221 0 26720 2745664.3300254 45747172471.868
797	80261869 6896 2485225 2789823 178.009504374 200 221 0 26720 2745664.3300254 45747172471.868
798	80268765 6896 2485225 2789823 178.009504374 200 221 0 24160 2490809.8970229 37608091878.213
799	80275661 6896 2485225 2789823 178.009504374 200 221 0 24160 2490809.8970229 37608091878.213
800	80282557 6896 2485225 2789823 178.009504374 200 221 0 24160 2490809.8970229 37608091878.213
801	80289453 6896 2485225 2789823 178.009504374 200 221 0 24160 2490809.8970229 37608091878.213
802	80296349 6896 2485225 2789823 178.009504374 200 221 0 24160 2490809.8970229 37608091878.213
803	80303245 6896 2485225 2789823 178.009504374 200 221 0 24160 2490809.8970229 37608091878.213
804	80310141 6896 2485225 2789823 178.009504374 200 221 0 22880 2363382.6805216 33837421646.924
805	80317037 6896 2485225 2789823 178.009504374 200 221 0 22880 2363382.6805216 33837421646.924
806	80323933 6742 2485225 2789823 178.009504374 200 221 0 18400 1917387.4227672 22209143681.495
807	80330675 6806 2483283 2789823 177.99964968226 200 222 0 11520 391680 3782246400
808	80337481 6806 2483283 2789823 177.99964968226 200 222 0 10880 369920 3373670400
809	80344287 6806 2483283 2789823 177.99964968226 200 222 0 10880 369920 3373670400
810	80351093 6783 2483283 2789823 177.99964968226 200 222 0 8640 293760 2127513600
811	80357876 6783 2483283 2789823 177.99964968226 200 222 0 8640 293760 2127513600
812	80364659 6783 2483283 2789823 177.99964968226 200 222 0 8640 293760 2127513600
813	80371442 7007 2496674 2789823 177.998999638761 200 222 0 0.00064 0.01472 9.4208e-06
814	80378449 7007 2496685 2789823 177.999008878987 200 222 0 0.00064 0.01472 9.4208e-06
815	80385456 7007 2496705 2789823 177.999012093997 200 222 0 0.00064 0.01472 9.4208e-06
816	80392463 7030 2496713 2789823 177.999013007997 200 222 0 0.000864 0.019872 1.7169408e-05
817	80399493 7007 2496728 2789823 177.999015182227 200 222 0 0.00064 0.01472 9.4208e-06
818	80406500 6619 2483244 2789823 177.009000864 200 231 0 0.000864 0.019872 1.7169408e-05
819	80413119 6596 2483276 2789823 177.009001554 200 231 0 0.00064 0.01472 9.4208e-06
820	80419715 6938 2496673 2789823 177.998988998869 200 222 0 4320 99360 429235200
821	80426653 6938 2496673 2789823 177.998988998869 200 222 0 5440 125120 680652800
822	80433591 6938 2496673 2789823 177.998988998869 200 222 0 5440 125120 680652800
823	80440529 6938 2496673 2789823 177.998988998869 200 222 0 5440 125120 680652800
824	80447467 6938 2496673 2789823 177.998988998869 200 222 0 5440 125120 680652800
825	80454405 6938 2496673 2789823 177.998988998869 200 222 0 5760 132480 763084800
826	80461343 6938 2496673 2789823 177.998988998869 200 222 0 5760 132480 763084800
827	80468281 6938 2496674 2789823 177.998988998869 200 222 0 5760 132480 763084800
828	80475219 6938 2496674 2789823 177.998988998869 200 222 0 5760 132480 763084800
829	80482157 6938 2496674 2789823 177.998988998869 200 222 0 5760 132480 763084800
830	80489095 6938 2496674 2789823 177.998988998869 200 222 0 5760 132480 763084800
831	80496033 6938 2496674 2789823 177.998988998869 200 222 0 5760 132480 763084800
832	80502971 6938 2496674 2789823 177.998988998869 200 222 0 5760 132480 763084800
833	80509909 6938 2496674 2789823 177.998988998869 200 222 0 6400 147200 942080000
834	80516847 6938 2496674 2789823 177.998988998869 200 222 0 6400 147200 942080000
835	80523785 6938 2496674 2789823 177.998988998869 200 222 0 6400 147200 942080000
836	80530723 6938 2496675 2789823 177.998989638869 200 222 0 6400 147200 942080000
837	80537661 6938 2496676 2789823 177.998989688869 200 222 0 6400 147200 942080000
838	80544599 6938 2496676 2789823 177.998989688869 200 222 0 6400 147200 942080000
839	80551537 6938 2496676 2789823 177.998989688869 200 222 0 6400 147200 942080000
840	80558475 6938 2496676 2789823 177.998989688869 200 222 0 6400 147200 942080000
841	80565413 6938 2496676 2789823 177.998989688869 200 222 0 5760 132480 763084800
842	80572351 6938 2496676 2789823 177.998989688869 200 222 0 5760 132480 763084800
843	80579289 6938 2496676 2789823 177.998989688869 200 222 0 5760 132480 763084800
844	80586227 6938 2496676 2789823 177.998989688869 200 222 0 5760 132480 763084800
845	80593165 6938 2496676 2789823 177.998989688869 200 222 0 5760 132480 763084800
846	80600103 6938 2496684 2789823 177.998998239096 200 222 0 4320 99360 429235200
847	80607041 6938 2496684 2789823 177.998998239096 200 222 0 5440 125120 680652800
848	80613979 6938 2496684 2789823 177.998998239096 200 222 0 5440 125120 680652800
849	80620917 6938 2496684 2789823 177.998998239096 200 222 0 5440 125120 680652800
850	80627855 6938 2496684 2789823 177.998998239096 200 222 0 5440 125120 680652800
851	80634793 6938 2496684 2789823 177.998998239096 200 222 0 5760 132480 763084800
852	80641731 6938 2496684 2789823 177.998998239096 200 222 0 5760 132480 763084800
853	80648669 6938 2496685 2789823 177.998998239096 200 222 0 5760 132480 763084800
854	80655607 6938 2496685 2789823 177.998998239096 200 222 0 5760 132480 763084800
855	80662545 6938 2496685 2789823 177.998998239096 200 222 0 5760 132480 763084800
856	80669483 6938 2496685 2789823 177.998998239096 200 222 0 5760 132480 763084800
857	80676421 6938 2496685 2789823 177.998998239096 200 222 0 5760 132480 763084800
858	80683359 6938 2496685 2789823 177.998998239096 200 222 0 5760 132480 763084800
859	80690297 6938 2496685 2789823 177.998998239096 200 222 0 6400 147200 942080000
860	80697235 6938 2496685 2789823 177.998998239096 200 222 0 6400 147200 942080000
861	80704173 6938 2496685 2789823 177.998998239096 200 222 0 6400 147200 942080000
862	80711111 6938 2496693 2789823 177.998998879096 200 222 0 6400 147200 942080000
863	80718049 6938 2496694 2789823 177.998998929096 200 222 0 6400 147200 942080000
864	80724987 6938 2496694 2789823 177.998998929096 200 222 0 6400 147200 942080000
865	80731925 6938 2496694 2789823 177.998998929096 200 222 0 6400 147200 942080000
866	80738863 6938 2496694 2789823 177.998998929096 200 222 0 6400 147200 942080000
867	80745801 6938 2496694 2789823 177.998998929096 200 222 0 5760 132480 763084800
868	80752739 6938 2496694 2789823 177.998998929096 200 222 0 5760 132480 763084800
869	80759677 6938 2496694 2789823 177.998998929096 200 222 0 5760 132480 763084800
870	80766615 6938 2496694 2789823 177.998998929096 200 222 0 5760 132480 763084800
871	80773553 6938 2496694 2789823 177.998998929096 200 222 0 5760 132480 763084800
872	80780491 6717 2496704 2789823 177.99900145419 200 222 0 5760 132480 763084800
873	80787208 6717 2496705 2789823 177.99900145419 200 222 0 5760 132480 763084800
874	80793925 6717 2496705 2789823 177.99900145419 200 222 0 5760 132480 763084800
875	80800642 6717 2496705 2789823 177.99900145419 200 222 0 5760 132480 763084800
876	80807359 6717 2496705 2789823 177.99900145419 200 222 0 5760 132480 763084800
877	80814076 6717 2496705 2789823 177.99900145419 200 222 0 5760 132480 763084800
878	80820793 6717 2496705 2789823 177.99900145419 200 222 0 5760 132480 763084800
879	80827510 6717 2496705 2789823 177.99900145419 200 222 0 6400 147200 942080000
880	80834227 6717 2496705 2789823 177.99900145419 200 222 0 6400 147200 942080000
881	80840944 6717 2496705 2789823 177.99900145419 200 222 0 6400 147200 942080000
882	80847661 6717 2496706 2789823 177.99900209419 200 222 0 6400 147200 942080000
883	80854378 6717 2496713 2789823 177.99900214419 200 222 0 8000 184000 1472000000
884	80861095 6717 2496713 2789823 177.99900214419 200 222 0 8000 184000 1472000000
885	80867812 6717 2496716 2789823 177.99900300819 200 222 0 8640 198720 1716940800
886	80874529 6938 2496727 2789823 177.999004542387 200 222 0 4320 99360 429235200
887	80881467 6938 2496727 2789823 177.999004542387 200 222 0 5440 125120 680652800
888	80888405 6938 2496727 2789823 177.999004542387 200 222 0 5440 125120 680652800
889	80895343 6938 2496727 2789823 177.999004542387 200 222 0 5440 125120 680652800
890	80902281 6938 2496727 2789823 177.999004542387 200 222 0 5440 125120 680652800
891	80909219 6938 2496727 2789823 177.999004542387 200 222 0 5760 132480 763084800
892	80916157 6938 2496727 2789823 177.999004542387 200 222 0 5760 132480 763084800
893	80923095 6938 2496728 2789823 177.999004542387 200 222 0 5760 132480 763084800
894	80930033 6938 2496728 2789823 177.999004542387 200 222 0 5760 132480 763084800
895	80936971 6938 2496728 2789823 177.999004542387 200 222 0 5760 132480 763084800
896	80943909 6938 2496728 2789823 177.999004542387 200 222 0 5760 132480 763084800
897	80950847 6938 2496728 2789823 177.999004542387 200 222 0 5760 132480 763084800
898	80957785 6938 2496728 2789823 177.999004542387 200 222 0 5760 132480 763084800
899	80964723 6938 2496728 2789823 177.999004542387 200 222 0 6400 147200 942080000
900	80971661 6938 2496728 2789823 177.999004542387 200 222 0 6400 147200 942080000
901	80978599 6938 2496728 2789823 177.999004542387 200 222 0 6400 147200 942080000
902	80985537 6938 2496729 2789823 177.999005182387 200 222 0 6400 147200 942080000
903	80992475 6938 2496730 2789823 177.999005232387 200 222 0 6400 147200 942080000
904	80999413 6938 2496730 2789823 177.999005232387 200 222 0 6400 147200 942080000
905	81006351 6938 2496730 2789823 177.999005232387 200 222 0 6400 147200 942080000
906	81013289 6938 2496730 2789823 177.999005232387 200 222 0 6400 147200 942080000
907	81020227 6938 2496730 2789823 177.999005232387 200 222 0 5760 132480 763084800
908	81027165 6938 2496730 2789823 177.999005232387 200 222 0 5760 132480 763084800
909	81034103 6938 2496730 2789823 177.999005232387 200 222 0 5760 132480 763084800
910	81041041 6938 2496730 2789823 177.999005232387 200 222 0 5760 132480 763084800
911	81047979 6938 2496730 2789823 177.999005232387 200 222 0 5760 132480 763084800
912	81054917 5147 2483244 2789823 177.009 200 231 0 8000 184000 1472000000
913	81060064 5147 2483244 2789823 177.009 200 231 0 8000 184000 1472000000
914	81065211 6527 2483268 2789823 177.009000864 200 231 0 8640 198720 1716940800
915	81071738 6527 2483276 2789823 177.009000914 200 231 0 5760 132480 763084800
916	81078265 6527 2483276 2789823 177.009000914 200 231 0 5760 132480 763084800
917	81084792 6527 2483282 2789823 177.009001554 200 231 0 6400 147200 942080000
918	81091319 6527 2483283 2789823 177.009001604 200 231 0 6400 147200 942080000
919	81097846 6527 2483283 2789823 177.009001604 200 231 0 6400 147200 942080000
920	81104373 6527 2483283 2789823 177.009001604 200 231 0 6400 147200 942080000
921	81110900 6527 2483283 2789823 177.009001604 200 231 0 6400 147200 942080000
922	81117427 6527 2483283 2789823 177.009001604 200 231 0 5760 132480 763084800
923	81123954 6527 2483283 2789823 177.009001604 200 231 0 5760 132480 763084800
924	81130481 6527 2483283 2789823 177.009001604 200 231 0 5760 132480 763084800
925	81137008 6527 2483283 2789823 177.009001604 200 231 0 5760 132480 763084800
926	81143535 6527 2483283 2789823 177.009001604 200 231 0 5760 132480 763084800

