file 66889674 1712874631                                        
version 3
run UL-Synchronization-0-20240411-19:30:04-80648
attr configname UL-Synchronization
attr datetime 20240411-19:30:04
attr datetimef 20240411-193004
attr experiment UL-Synchronization
attr inifile omnetpp.ini
attr iterationvars $u=1
attr iterationvarsd u=1
attr iterationvarsf u=1-
attr measurement $u=1
attr network UseCase
attr processid 80648
attr repetition 0
attr replication #0
attr resultdir results
attr runnumber 0
attr seedset 0
itervar u 1
config image-path ../../inet/images:../../Simu5G/images
config extends timeSynchronization
config **.hasTimeSynchronization true
config **.referenceClock "\"switchTSN.clock\""
config *.switchTSN.clock.oscillator.driftRate 10ppm
config **.oscillator.driftRate "uniform(10ppm, 100ppm)"
config *.switchTSN.gptp.gptpNodeType "\"MASTER_NODE\""
config *.switchTSN.gptp.masterPorts "[\"eth0\",\"eth1\",\"eth2\"]"
config *.switchTSN.gptp.slavePort "\"\""
config *.switch*.gptp.masterPorts "[\"eth0\"]"
config *.switch*.gptp.slavePort "\"eth1\""
config *.NSTT.gptp.masterPorts "[\"eth1\"]"
config *.NSTT.gptp.slavePort "\"eth0\""
config *.NSTT.gptp.slaveDomains [0]
config *.DSTT.gptp.masterPorts "[\"eth0\"]"
config *.DSTT.gptp.slavePort "\"eth1\""
config *.DSTT.gptp.masterDomains [0]
config *.switch5GC.clock.displayStringTextFormat "\"diff: %d\""
config *.switchTSN.clock.displayStringTextFormat "\"time: %T\""
config *.upf.clock.typename IdealClock
config *.*TT.clock.typename IdealClock
config **.clock.oscillator.typename ConstantDriftOscillator
config *.*TT.gptp.typename Gptp5g
config *.*TT.gptp.fiveGPort "\"eth0\""
config *.visualizer.typename IntegratedMultiCanvasVisualizer
config *.visualizer.numInfoVisualizers 1
config *.visualizer.infoVisualizer[0].modules "\"**.clock\""
config *.visualizer.infoVisualizer[0].placementHint "\"bottom\""
config *.PLC.clock.displayStringTextFormat "\"diff: %d\""
config *.Actuato*.clock.displayStringTextFormat "\"diff: %d\""
config *.Sensor.clock.displayStringTextFormat "\"diff: %d\""
config *.switch*.clock.displayStringTextFormat "\"diff: %d\""
config network UseCase
config sim-time-limit 200s
config **.eth*.bitrate 1Gbps
config **.mobility.typename ""
config *.ue.macCellId 0
config *.ue.masterId 0
config *.ue.nrMacCellId 1
config *.ue.nrMasterId 1
config *.ue.intHostAddress "\"Sensor Actuator DSTT\""
config **.amcType "\"NRAmc\""
config **.targetBler 0.001
config **.blerShift 5
config **.numerologyIndex 1
config **.useTdd true
config **.numBands 200
config *.NSTT.**.translatorType "\"NS_TT\""

vector 0 UseCase.upf.clock timeChanged:vector ETV
attr interpolationmode linear
attr recordingmode vector
attr title "Clock time"
vector 1 UseCase.upf.eth[0].queue queueLength:vector ETV
attr autoWarmupFilter false
attr interpolationmode sample-hold
attr recordingmode vector
attr source "warmup(atomic(constant0(packetPushEnded) + count(packetPushStarted) - count(packetPulled) - count(packetRemoved) - count(packetDropped)))"
attr title "queue length"
attr unit pk
vector 2 UseCase.upf.eth[0].queue queueBitLength:vector ETV
attr autoWarmupFilter false
attr interpolationmode sample-hold
attr recordingmode vector
attr source "warmup(atomic(constant0(packetPushEnded) + sum(packetLength(packetPushStarted)) - sum(packetLength(packetPulled)) - sum(packetLength(packetRemoved)) - sum(packetLength(packetDropped))))"
attr title "queue bit length"
attr unit b
vector 3 UseCase.upf.eth[0].mac transmitting:vector ETV
attr interpolationmode sample-hold
attr recordingmode vector
attr source "count(transmissionStarted) - count(transmissionEnded)"
attr title "transmitting state"
attr type int
vector 4 UseCase.upf.ethIf.macLayer.queue queueLength:vector ETV
attr autoWarmupFilter false
attr interpolationmode sample-hold
attr recordingmode vector
attr source "warmup(atomic(constant0(packetPushEnded) + count(packetPushStarted) - count(packetPulled) - count(packetRemoved) - count(packetDropped)))"
attr title "queue length"
attr unit pk
vector 5 UseCase.upf.ethIf.macLayer.queue queueBitLength:vector ETV
attr autoWarmupFilter false
attr interpolationmode sample-hold
attr recordingmode vector
attr source "warmup(atomic(constant0(packetPushEnded) + sum(packetLength(packetPushStarted)) - sum(packetLength(packetPulled)) - sum(packetLength(packetRemoved)) - sum(packetLength(packetDropped))))"
attr title "queue bit length"
attr unit b
vector 6 UseCase.upf.ethIf.phyLayer.interFrameGapInserter interpacketGap:vector ETV
attr interpolationmode sample-hold
attr recordingmode vector
attr source "count(interpacketGapStarted) - count(interpacketGapEnded)"
attr title "interpacket gap state"
attr type int
vector 7 UseCase.upf.ethIf.phyLayer.transmitter transmitting:vector ETV
attr interpolationmode sample-hold
attr recordingmode vector
attr source "count(transmissionStarted) - count(transmissionEnded)"
attr title "transmitting state"
attr type int
vector 8 UseCase.upf.udp passedUpPk:vector(count) ETV
attr interpolationmode none
attr recordingmode vector(count)
attr source packetSentToUpper
attr title "packets passed up, count"
vector 9 UseCase.upf.udp droppedPkWrongPort:vector(count) ETV
attr interpolationmode none
attr recordingmode vector(count)
attr source packetDropReasonIsNoPortFound(packetDropped)
attr title "packets dropped (wrong port), count"
vector 10 UseCase.upf.udp droppedPkBadChecksum:vector(count) ETV
attr interpolationmode none
attr recordingmode vector(count)
attr source packetDropReasonIsIncorrectlyReceived(packetDropped)
attr title "packets dropped (checksum error), count"
vector 11 UseCase.gNB.pppIf.queue queueLength:vector ETV
attr autoWarmupFilter false
attr interpolationmode sample-hold
attr recordingmode vector
attr source "warmup(atomic(constant0(packetPushEnded) + count(packetPushStarted) - count(packetPulled) - count(packetRemoved) - count(packetDropped)))"
attr title "queue length"
attr unit pk
vector 12 UseCase.gNB.pppIf.queue queueBitLength:vector ETV
attr autoWarmupFilter false
attr interpolationmode sample-hold
attr recordingmode vector
attr source "warmup(atomic(constant0(packetPushEnded) + sum(packetLength(packetPushStarted)) - sum(packetLength(packetPulled)) - sum(packetLength(packetRemoved)) - sum(packetLength(packetDropped))))"
attr title "queue bit length"
attr unit b
vector 13 UseCase.gNB.pppIf.ppp transmissionState:vector ETV
attr interpolationmode sample-hold
attr recordingmode vector
attr source transmissionStateChanged
attr title "tx state"
vector 14 UseCase.gNB.pppMEHostIf.queue queueLength:vector ETV
attr autoWarmupFilter false
attr interpolationmode sample-hold
attr recordingmode vector
attr source "warmup(atomic(constant0(packetPushEnded) + count(packetPushStarted) - count(packetPulled) - count(packetRemoved) - count(packetDropped)))"
attr title "queue length"
attr unit pk
vector 15 UseCase.gNB.pppMEHostIf.queue queueBitLength:vector ETV
attr autoWarmupFilter false
attr interpolationmode sample-hold
attr recordingmode vector
attr source "warmup(atomic(constant0(packetPushEnded) + sum(packetLength(packetPushStarted)) - sum(packetLength(packetPulled)) - sum(packetLength(packetRemoved)) - sum(packetLength(packetDropped))))"
attr title "queue bit length"
attr unit b
vector 16 UseCase.gNB.pppMEHostIf.ppp transmissionState:vector ETV
attr interpolationmode sample-hold
attr recordingmode vector
attr source transmissionStateChanged
attr title "tx state"
vector 17 UseCase.gNB.udp passedUpPk:vector(count) ETV
attr interpolationmode none
attr recordingmode vector(count)
attr source packetSentToUpper
attr title "packets passed up, count"
vector 18 UseCase.gNB.udp droppedPkWrongPort:vector(count) ETV
attr interpolationmode none
attr recordingmode vector(count)
attr source packetDropReasonIsNoPortFound(packetDropped)
attr title "packets dropped (wrong port), count"
vector 19 UseCase.gNB.udp droppedPkBadChecksum:vector(count) ETV
attr interpolationmode none
attr recordingmode vector(count)
attr source packetDropReasonIsIncorrectlyReceived(packetDropped)
attr title "packets dropped (checksum error), count"
vector 20 UseCase.gNB.eth.macLayer.queue queueLength:vector ETV
attr autoWarmupFilter false
attr interpolationmode sample-hold
attr recordingmode vector
attr source "warmup(atomic(constant0(packetPushEnded) + count(packetPushStarted) - count(packetPulled) - count(packetRemoved) - count(packetDropped)))"
attr title "queue length"
attr unit pk
vector 21 UseCase.gNB.eth.macLayer.queue queueBitLength:vector ETV
attr autoWarmupFilter false
attr interpolationmode sample-hold
attr recordingmode vector
attr source "warmup(atomic(constant0(packetPushEnded) + sum(packetLength(packetPushStarted)) - sum(packetLength(packetPulled)) - sum(packetLength(packetRemoved)) - sum(packetLength(packetDropped))))"
attr title "queue bit length"
attr unit b
vector 22 UseCase.gNB.eth.phyLayer.interFrameGapInserter interpacketGap:vector ETV
attr interpolationmode sample-hold
attr recordingmode vector
attr source "count(interpacketGapStarted) - count(interpacketGapEnded)"
attr title "interpacket gap state"
attr type int
vector 23 UseCase.gNB.eth.phyLayer.transmitter transmitting:vector ETV
attr interpolationmode sample-hold
attr recordingmode vector
attr source "count(transmissionStarted) - count(transmissionEnded)"
attr title "transmitting state"
attr type int
vector 24 UseCase.ue.eth[0].queue queueLength:vector ETV
attr autoWarmupFilter false
attr interpolationmode sample-hold
attr recordingmode vector
attr source "warmup(atomic(constant0(packetPushEnded) + count(packetPushStarted) - count(packetPulled) - count(packetRemoved) - count(packetDropped)))"
attr title "queue length"
attr unit pk
vector 25 UseCase.ue.eth[0].queue queueBitLength:vector ETV
attr autoWarmupFilter false
attr interpolationmode sample-hold
attr recordingmode vector
attr source "warmup(atomic(constant0(packetPushEnded) + sum(packetLength(packetPushStarted)) - sum(packetLength(packetPulled)) - sum(packetLength(packetRemoved)) - sum(packetLength(packetDropped))))"
attr title "queue bit length"
attr unit b
vector 26 UseCase.ue.eth[0].mac transmitting:vector ETV
attr interpolationmode sample-hold
attr recordingmode vector
attr source "count(transmissionStarted) - count(transmissionEnded)"
attr title "transmitting state"
attr type int
vector 27 UseCase.ue.udp passedUpPk:vector(count) ETV
attr interpolationmode none
attr recordingmode vector(count)
attr source packetSentToUpper
attr title "packets passed up, count"
vector 28 UseCase.ue.udp droppedPkWrongPort:vector(count) ETV
attr interpolationmode none
attr recordingmode vector(count)
attr source packetDropReasonIsNoPortFound(packetDropped)
attr title "packets dropped (wrong port), count"
vector 29 UseCase.ue.udp droppedPkBadChecksum:vector(count) ETV
attr interpolationmode none
attr recordingmode vector(count)
attr source packetDropReasonIsIncorrectlyReceived(packetDropped)
attr title "packets dropped (checksum error), count"
vector 30 UseCase.DSTT.clock timeChanged:vector ETV
attr interpolationmode linear
attr recordingmode vector
attr title "Clock time"
vector 31 UseCase.DSTT.eth[0].queue queueLength:vector ETV
attr autoWarmupFilter false
attr interpolationmode sample-hold
attr recordingmode vector
attr source "warmup(atomic(constant0(packetPushEnded) + count(packetPushStarted) - count(packetPulled) - count(packetRemoved) - count(packetDropped)))"
attr title "queue length"
attr unit pk
vector 32 UseCase.DSTT.eth[0].queue queueBitLength:vector ETV
attr autoWarmupFilter false
attr interpolationmode sample-hold
attr recordingmode vector
attr source "warmup(atomic(constant0(packetPushEnded) + sum(packetLength(packetPushStarted)) - sum(packetLength(packetPulled)) - sum(packetLength(packetRemoved)) - sum(packetLength(packetDropped))))"
attr title "queue bit length"
attr unit b
vector 33 UseCase.DSTT.eth[0].mac transmitting:vector ETV
attr interpolationmode sample-hold
attr recordingmode vector
attr source "count(transmissionStarted) - count(transmissionEnded)"
attr title "transmitting state"
attr type int
vector 34 UseCase.DSTT.eth[1].queue queueLength:vector ETV
attr autoWarmupFilter false
attr interpolationmode sample-hold
attr recordingmode vector
attr source "warmup(atomic(constant0(packetPushEnded) + count(packetPushStarted) - count(packetPulled) - count(packetRemoved) - count(packetDropped)))"
attr title "queue length"
attr unit pk
vector 35 UseCase.DSTT.eth[1].queue queueBitLength:vector ETV
attr autoWarmupFilter false
attr interpolationmode sample-hold
attr recordingmode vector
attr source "warmup(atomic(constant0(packetPushEnded) + sum(packetLength(packetPushStarted)) - sum(packetLength(packetPulled)) - sum(packetLength(packetRemoved)) - sum(packetLength(packetDropped))))"
attr title "queue bit length"
attr unit b
vector 36 UseCase.DSTT.eth[1].mac transmitting:vector ETV
attr interpolationmode sample-hold
attr recordingmode vector
attr source "count(transmissionStarted) - count(transmissionEnded)"
attr title "transmitting state"
attr type int
vector 37 UseCase.DSTT.udp passedUpPk:vector(count) ETV
attr interpolationmode none
attr recordingmode vector(count)
attr source packetSentToUpper
attr title "packets passed up, count"
vector 38 UseCase.DSTT.udp droppedPkWrongPort:vector(count) ETV
attr interpolationmode none
attr recordingmode vector(count)
attr source packetDropReasonIsNoPortFound(packetDropped)
attr title "packets dropped (wrong port), count"
vector 39 UseCase.DSTT.udp droppedPkBadChecksum:vector(count) ETV
attr interpolationmode none
attr recordingmode vector(count)
attr source packetDropReasonIsIncorrectlyReceived(packetDropped)
attr title "packets dropped (checksum error), count"
vector 40 UseCase.NSTT.clock timeChanged:vector ETV
attr interpolationmode linear
attr recordingmode vector
attr title "Clock time"
vector 41 UseCase.NSTT.eth[0].queue queueLength:vector ETV
attr autoWarmupFilter false
attr interpolationmode sample-hold
attr recordingmode vector
attr source "warmup(atomic(constant0(packetPushEnded) + count(packetPushStarted) - count(packetPulled) - count(packetRemoved) - count(packetDropped)))"
attr title "queue length"
attr unit pk
vector 42 UseCase.NSTT.eth[0].queue queueBitLength:vector ETV
attr autoWarmupFilter false
attr interpolationmode sample-hold
attr recordingmode vector
attr source "warmup(atomic(constant0(packetPushEnded) + sum(packetLength(packetPushStarted)) - sum(packetLength(packetPulled)) - sum(packetLength(packetRemoved)) - sum(packetLength(packetDropped))))"
attr title "queue bit length"
attr unit b
vector 43 UseCase.NSTT.eth[0].mac transmitting:vector ETV
attr interpolationmode sample-hold
attr recordingmode vector
attr source "count(transmissionStarted) - count(transmissionEnded)"
attr title "transmitting state"
attr type int
vector 44 UseCase.NSTT.eth[1].queue queueLength:vector ETV
attr autoWarmupFilter false
attr interpolationmode sample-hold
attr recordingmode vector
attr source "warmup(atomic(constant0(packetPushEnded) + count(packetPushStarted) - count(packetPulled) - count(packetRemoved) - count(packetDropped)))"
attr title "queue length"
attr unit pk
vector 45 UseCase.NSTT.eth[1].queue queueBitLength:vector ETV
attr autoWarmupFilter false
attr interpolationmode sample-hold
attr recordingmode vector
attr source "warmup(atomic(constant0(packetPushEnded) + sum(packetLength(packetPushStarted)) - sum(packetLength(packetPulled)) - sum(packetLength(packetRemoved)) - sum(packetLength(packetDropped))))"
attr title "queue bit length"
attr unit b
vector 46 UseCase.NSTT.eth[1].mac transmitting:vector ETV
attr interpolationmode sample-hold
attr recordingmode vector
attr source "count(transmissionStarted) - count(transmissionEnded)"
attr title "transmitting state"
attr type int
vector 47 UseCase.NSTT.udp passedUpPk:vector(count) ETV
attr interpolationmode none
attr recordingmode vector(count)
attr source packetSentToUpper
attr title "packets passed up, count"
vector 48 UseCase.NSTT.udp droppedPkWrongPort:vector(count) ETV
attr interpolationmode none
attr recordingmode vector(count)
attr source packetDropReasonIsNoPortFound(packetDropped)
attr title "packets dropped (wrong port), count"
vector 49 UseCase.NSTT.udp droppedPkBadChecksum:vector(count) ETV
attr interpolationmode none
attr recordingmode vector(count)
attr source packetDropReasonIsIncorrectlyReceived(packetDropped)
attr title "packets dropped (checksum error), count"
vector 50 UseCase.Actuator.eth[0].macLayer.queue queueLength:vector ETV
attr autoWarmupFilter false
attr interpolationmode sample-hold
attr recordingmode vector
attr source "warmup(atomic(constant0(packetPushEnded) + count(packetPushStarted) - count(packetPulled) - count(packetRemoved) - count(packetDropped)))"
attr title "queue length"
attr unit pk
vector 51 UseCase.Actuator.eth[0].macLayer.queue queueBitLength:vector ETV
attr autoWarmupFilter false
attr interpolationmode sample-hold
attr recordingmode vector
attr source "warmup(atomic(constant0(packetPushEnded) + sum(packetLength(packetPushStarted)) - sum(packetLength(packetPulled)) - sum(packetLength(packetRemoved)) - sum(packetLength(packetDropped))))"
attr title "queue bit length"
attr unit b
vector 52 UseCase.Actuator.eth[0].phyLayer.interFrameGapInserter interpacketGap:vector ETV
attr interpolationmode sample-hold
attr recordingmode vector
attr source "count(interpacketGapStarted) - count(interpacketGapEnded)"
attr title "interpacket gap state"
attr type int
vector 53 UseCase.Actuator.eth[0].phyLayer.transmitter transmitting:vector ETV
attr interpolationmode sample-hold
attr recordingmode vector
attr source "count(transmissionStarted) - count(transmissionEnded)"
attr title "transmitting state"
attr type int
vector 54 UseCase.Actuator.udp passedUpPk:vector(count) ETV
attr interpolationmode none
attr recordingmode vector(count)
attr source packetSentToUpper
attr title "packets passed up, count"
vector 55 UseCase.Actuator.udp droppedPkWrongPort:vector(count) ETV
attr interpolationmode none
attr recordingmode vector(count)
attr source packetDropReasonIsNoPortFound(packetDropped)
attr title "packets dropped (wrong port), count"
vector 56 UseCase.Actuator.udp droppedPkBadChecksum:vector(count) ETV
attr interpolationmode none
attr recordingmode vector(count)
attr source packetDropReasonIsIncorrectlyReceived(packetDropped)
attr title "packets dropped (checksum error), count"
vector 57 UseCase.Actuator.gptp rateRatio:vector ETV
attr interpolationmode sample-hold
attr recordingmode vector
vector 58 UseCase.Actuator.gptp correctionField:vector ETV
attr interpolationmode linear
attr recordingmode vector
vector 59 UseCase.Actuator.gptp localTime:vector ETV
attr "" ""
attr interpolationmode linear
attr recordingmode vector
vector 60 UseCase.Actuator.gptp timeDifference:vector ETV
attr interpolationmode linear
attr recordingmode vector
vector 61 UseCase.switch5GC.gptp rateRatio:vector ETV
attr interpolationmode sample-hold
attr recordingmode vector
vector 62 UseCase.switch5GC.gptp correctionField:vector ETV
attr interpolationmode linear
attr recordingmode vector
vector 63 UseCase.switch5GC.gptp localTime:vector ETV
attr "" ""
attr interpolationmode linear
attr recordingmode vector
vector 64 UseCase.switch5GC.gptp timeDifference:vector ETV
attr interpolationmode linear
attr recordingmode vector
vector 65 UseCase.switch5GC.eth[0].macLayer.queue queueLength:vector ETV
attr autoWarmupFilter false
attr interpolationmode sample-hold
attr recordingmode vector
attr source "warmup(atomic(constant0(packetPushEnded) + count(packetPushStarted) - count(packetPulled) - count(packetRemoved) - count(packetDropped)))"
attr title "queue length"
attr unit pk
vector 66 UseCase.switch5GC.eth[0].macLayer.queue queueBitLength:vector ETV
attr autoWarmupFilter false
attr interpolationmode sample-hold
attr recordingmode vector
attr source "warmup(atomic(constant0(packetPushEnded) + sum(packetLength(packetPushStarted)) - sum(packetLength(packetPulled)) - sum(packetLength(packetRemoved)) - sum(packetLength(packetDropped))))"
attr title "queue bit length"
attr unit b
vector 67 UseCase.switch5GC.eth[0].phyLayer.interFrameGapInserter interpacketGap:vector ETV
attr interpolationmode sample-hold
attr recordingmode vector
attr source "count(interpacketGapStarted) - count(interpacketGapEnded)"
attr title "interpacket gap state"
attr type int
vector 68 UseCase.switch5GC.eth[0].phyLayer.transmitter transmitting:vector ETV
attr interpolationmode sample-hold
attr recordingmode vector
attr source "count(transmissionStarted) - count(transmissionEnded)"
attr title "transmitting state"
attr type int
vector 69 UseCase.switch5GC.eth[1].macLayer.queue queueLength:vector ETV
attr autoWarmupFilter false
attr interpolationmode sample-hold
attr recordingmode vector
attr source "warmup(atomic(constant0(packetPushEnded) + count(packetPushStarted) - count(packetPulled) - count(packetRemoved) - count(packetDropped)))"
attr title "queue length"
attr unit pk
vector 70 UseCase.switch5GC.eth[1].macLayer.queue queueBitLength:vector ETV
attr autoWarmupFilter false
attr interpolationmode sample-hold
attr recordingmode vector
attr source "warmup(atomic(constant0(packetPushEnded) + sum(packetLength(packetPushStarted)) - sum(packetLength(packetPulled)) - sum(packetLength(packetRemoved)) - sum(packetLength(packetDropped))))"
attr title "queue bit length"
attr unit b
vector 71 UseCase.switch5GC.eth[1].phyLayer.interFrameGapInserter interpacketGap:vector ETV
attr interpolationmode sample-hold
attr recordingmode vector
attr source "count(interpacketGapStarted) - count(interpacketGapEnded)"
attr title "interpacket gap state"
attr type int
vector 72 UseCase.switch5GC.eth[1].phyLayer.transmitter transmitting:vector ETV
attr interpolationmode sample-hold
attr recordingmode vector
attr source "count(transmissionStarted) - count(transmissionEnded)"
attr title "transmitting state"
attr type int
vector 73 UseCase.switchTSN.gptp rateRatio:vector ETV
attr interpolationmode sample-hold
attr recordingmode vector
vector 74 UseCase.switchTSN.gptp correctionField:vector ETV
attr interpolationmode linear
attr recordingmode vector
vector 75 UseCase.switchTSN.gptp localTime:vector ETV
attr "" ""
attr interpolationmode linear
attr recordingmode vector
vector 76 UseCase.switchTSN.gptp timeDifference:vector ETV
attr interpolationmode linear
attr recordingmode vector
vector 77 UseCase.switchTSN.eth[0].macLayer.queue queueLength:vector ETV
attr autoWarmupFilter false
attr interpolationmode sample-hold
attr recordingmode vector
attr source "warmup(atomic(constant0(packetPushEnded) + count(packetPushStarted) - count(packetPulled) - count(packetRemoved) - count(packetDropped)))"
attr title "queue length"
attr unit pk
vector 78 UseCase.switchTSN.eth[0].macLayer.queue queueBitLength:vector ETV
attr autoWarmupFilter false
attr interpolationmode sample-hold
attr recordingmode vector
attr source "warmup(atomic(constant0(packetPushEnded) + sum(packetLength(packetPushStarted)) - sum(packetLength(packetPulled)) - sum(packetLength(packetRemoved)) - sum(packetLength(packetDropped))))"
attr title "queue bit length"
attr unit b
vector 79 UseCase.switchTSN.eth[0].phyLayer.interFrameGapInserter interpacketGap:vector ETV
attr interpolationmode sample-hold
attr recordingmode vector
attr source "count(interpacketGapStarted) - count(interpacketGapEnded)"
attr title "interpacket gap state"
attr type int
vector 80 UseCase.switchTSN.eth[0].phyLayer.transmitter transmitting:vector ETV
attr interpolationmode sample-hold
attr recordingmode vector
attr source "count(transmissionStarted) - count(transmissionEnded)"
attr title "transmitting state"
attr type int
vector 81 UseCase.switchTSN.eth[1].macLayer.queue queueLength:vector ETV
attr autoWarmupFilter false
attr interpolationmode sample-hold
attr recordingmode vector
attr source "warmup(atomic(constant0(packetPushEnded) + count(packetPushStarted) - count(packetPulled) - count(packetRemoved) - count(packetDropped)))"
attr title "queue length"
attr unit pk
vector 82 UseCase.switchTSN.eth[1].macLayer.queue queueBitLength:vector ETV
attr autoWarmupFilter false
attr interpolationmode sample-hold
attr recordingmode vector
attr source "warmup(atomic(constant0(packetPushEnded) + sum(packetLength(packetPushStarted)) - sum(packetLength(packetPulled)) - sum(packetLength(packetRemoved)) - sum(packetLength(packetDropped))))"
attr title "queue bit length"
attr unit b
vector 83 UseCase.switchTSN.eth[1].phyLayer.interFrameGapInserter interpacketGap:vector ETV
attr interpolationmode sample-hold
attr recordingmode vector
attr source "count(interpacketGapStarted) - count(interpacketGapEnded)"
attr title "interpacket gap state"
attr type int
vector 84 UseCase.switchTSN.eth[1].phyLayer.transmitter transmitting:vector ETV
attr interpolationmode sample-hold
attr recordingmode vector
attr source "count(transmissionStarted) - count(transmissionEnded)"
attr title "transmitting state"
attr type int
vector 85 UseCase.switchTSN.eth[2].macLayer.queue queueLength:vector ETV
attr autoWarmupFilter false
attr interpolationmode sample-hold
attr recordingmode vector
attr source "warmup(atomic(constant0(packetPushEnded) + count(packetPushStarted) - count(packetPulled) - count(packetRemoved) - count(packetDropped)))"
attr title "queue length"
attr unit pk
vector 86 UseCase.switchTSN.eth[2].macLayer.queue queueBitLength:vector ETV
attr autoWarmupFilter false
attr interpolationmode sample-hold
attr recordingmode vector
attr source "warmup(atomic(constant0(packetPushEnded) + sum(packetLength(packetPushStarted)) - sum(packetLength(packetPulled)) - sum(packetLength(packetRemoved)) - sum(packetLength(packetDropped))))"
attr title "queue bit length"
attr unit b
vector 87 UseCase.switchTSN.eth[2].phyLayer.interFrameGapInserter interpacketGap:vector ETV
attr interpolationmode sample-hold
attr recordingmode vector
attr source "count(interpacketGapStarted) - count(interpacketGapEnded)"
attr title "interpacket gap state"
attr type int
vector 88 UseCase.switchTSN.eth[2].phyLayer.transmitter transmitting:vector ETV
attr interpolationmode sample-hold
attr recordingmode vector
attr source "count(transmissionStarted) - count(transmissionEnded)"
attr title "transmitting state"
attr type int
vector 89 UseCase.PLC.eth[0].macLayer.queue queueLength:vector ETV
attr autoWarmupFilter false
attr interpolationmode sample-hold
attr recordingmode vector
attr source "warmup(atomic(constant0(packetPushEnded) + count(packetPushStarted) - count(packetPulled) - count(packetRemoved) - count(packetDropped)))"
attr title "queue length"
attr unit pk
vector 90 UseCase.PLC.eth[0].macLayer.queue queueBitLength:vector ETV
attr autoWarmupFilter false
attr interpolationmode sample-hold
attr recordingmode vector
attr source "warmup(atomic(constant0(packetPushEnded) + sum(packetLength(packetPushStarted)) - sum(packetLength(packetPulled)) - sum(packetLength(packetRemoved)) - sum(packetLength(packetDropped))))"
attr title "queue bit length"
attr unit b
vector 91 UseCase.PLC.eth[0].phyLayer.interFrameGapInserter interpacketGap:vector ETV
attr interpolationmode sample-hold
attr recordingmode vector
attr source "count(interpacketGapStarted) - count(interpacketGapEnded)"
attr title "interpacket gap state"
attr type int
vector 92 UseCase.PLC.eth[0].phyLayer.transmitter transmitting:vector ETV
attr interpolationmode sample-hold
attr recordingmode vector
attr source "count(transmissionStarted) - count(transmissionEnded)"
attr title "transmitting state"
attr type int
vector 93 UseCase.PLC.udp passedUpPk:vector(count) ETV
attr interpolationmode none
attr recordingmode vector(count)
attr source packetSentToUpper
attr title "packets passed up, count"
vector 94 UseCase.PLC.udp droppedPkWrongPort:vector(count) ETV
attr interpolationmode none
attr recordingmode vector(count)
attr source packetDropReasonIsNoPortFound(packetDropped)
attr title "packets dropped (wrong port), count"
vector 95 UseCase.PLC.udp droppedPkBadChecksum:vector(count) ETV
attr interpolationmode none
attr recordingmode vector(count)
attr source packetDropReasonIsIncorrectlyReceived(packetDropped)
attr title "packets dropped (checksum error), count"
vector 96 UseCase.PLC.gptp rateRatio:vector ETV
attr interpolationmode sample-hold
attr recordingmode vector
vector 97 UseCase.PLC.gptp correctionField:vector ETV
attr interpolationmode linear
attr recordingmode vector
vector 98 UseCase.PLC.gptp localTime:vector ETV
attr "" ""
attr interpolationmode linear
attr recordingmode vector
vector 99 UseCase.PLC.gptp timeDifference:vector ETV
attr interpolationmode linear
attr recordingmode vector
vector 100 UseCase.Sensor.eth[0].macLayer.queue queueLength:vector ETV
attr autoWarmupFilter false
attr interpolationmode sample-hold
attr recordingmode vector
attr source "warmup(atomic(constant0(packetPushEnded) + count(packetPushStarted) - count(packetPulled) - count(packetRemoved) - count(packetDropped)))"
attr title "queue length"
attr unit pk
vector 101 UseCase.Sensor.eth[0].macLayer.queue queueBitLength:vector ETV
attr autoWarmupFilter false
attr interpolationmode sample-hold
attr recordingmode vector
attr source "warmup(atomic(constant0(packetPushEnded) + sum(packetLength(packetPushStarted)) - sum(packetLength(packetPulled)) - sum(packetLength(packetRemoved)) - sum(packetLength(packetDropped))))"
attr title "queue bit length"
attr unit b
vector 102 UseCase.Sensor.eth[0].phyLayer.interFrameGapInserter interpacketGap:vector ETV
attr interpolationmode sample-hold
attr recordingmode vector
attr source "count(interpacketGapStarted) - count(interpacketGapEnded)"
attr title "interpacket gap state"
attr type int
vector 103 UseCase.Sensor.eth[0].phyLayer.transmitter transmitting:vector ETV
attr interpolationmode sample-hold
attr recordingmode vector
attr source "count(transmissionStarted) - count(transmissionEnded)"
attr title "transmitting state"
attr type int
vector 104 UseCase.Sensor.udp passedUpPk:vector(count) ETV
attr interpolationmode none
attr recordingmode vector(count)
attr source packetSentToUpper
attr title "packets passed up, count"
vector 105 UseCase.Sensor.udp droppedPkWrongPort:vector(count) ETV
attr interpolationmode none
attr recordingmode vector(count)
attr source packetDropReasonIsNoPortFound(packetDropped)
attr title "packets dropped (wrong port), count"
vector 106 UseCase.Sensor.udp droppedPkBadChecksum:vector(count) ETV
attr interpolationmode none
attr recordingmode vector(count)
attr source packetDropReasonIsIncorrectlyReceived(packetDropped)
attr title "packets dropped (checksum error), count"
vector 107 UseCase.Sensor.gptp rateRatio:vector ETV
attr interpolationmode sample-hold
attr recordingmode vector
vector 108 UseCase.Sensor.gptp correctionField:vector ETV
attr interpolationmode linear
attr recordingmode vector
vector 109 UseCase.Sensor.gptp localTime:vector ETV
attr "" ""
attr interpolationmode linear
attr recordingmode vector
vector 110 UseCase.Sensor.gptp timeDifference:vector ETV
attr interpolationmode linear
attr recordingmode vector
vector 111 UseCase.ue.cellularNic.phy servingCell:vector ETV
attr recordingmode vector
attr source servingCell
attr title "ID of the serving eNodeB for the UE"
attr unit ""
vector 112 UseCase.ue.cellularNic.nrPhy servingCell:vector ETV
attr recordingmode vector
attr source servingCell
attr title "ID of the serving eNodeB for the UE"
attr unit ""
vector 113 UseCase.Actuator.clock timeChanged:vector ETV
attr interpolationmode linear
attr recordingmode vector
attr title "Clock time"
vector 114 UseCase.switch5GC.clock timeChanged:vector ETV
attr interpolationmode linear
attr recordingmode vector
attr title "Clock time"
vector 115 UseCase.switchTSN.clock timeChanged:vector ETV
attr interpolationmode linear
attr recordingmode vector
attr title "Clock time"
vector 116 UseCase.PLC.clock timeChanged:vector ETV
attr interpolationmode linear
attr recordingmode vector
attr title "Clock time"
vector 117 UseCase.Sensor.clock timeChanged:vector ETV
attr interpolationmode linear
attr recordingmode vector
attr title "Clock time"
vector 118 UseCase.Actuator.ethernet.macHeaderInserter incomingPacketLengths:vector ETV
attr interpolationmode none
attr recordingmode vector
attr source "packetLength(merge(packetPushedIn, packetPulledIn))"
attr title "incoming packet lengths"
attr unit b
vector 119 UseCase.Actuator.ethernet.macHeaderInserter outgoingPacketLengths:vector ETV
attr interpolationmode none
attr recordingmode vector
attr source "packetLength(merge(packetPushedOut, packetPulledOut))"
attr title "outgoing packet lengths"
attr unit b
vector 120 UseCase.Actuator.ethernet.paddingInserter incomingPacketLengths:vector ETV
attr interpolationmode none
attr recordingmode vector
attr source "packetLength(merge(packetPushedIn, packetPulledIn))"
attr title "incoming packet lengths"
attr unit b
vector 121 UseCase.Actuator.ethernet.paddingInserter outgoingPacketLengths:vector ETV
attr interpolationmode none
attr recordingmode vector
attr source "packetLength(merge(packetPushedOut, packetPulledOut))"
attr title "outgoing packet lengths"
attr unit b
vector 122 UseCase.Actuator.ethernet.fcsInserter incomingPacketLengths:vector ETV
attr interpolationmode none
attr recordingmode vector
attr source "packetLength(merge(packetPushedIn, packetPulledIn))"
attr title "incoming packet lengths"
attr unit b
vector 123 UseCase.Actuator.ethernet.fcsInserter outgoingPacketLengths:vector ETV
attr interpolationmode none
attr recordingmode vector
attr source "packetLength(merge(packetPushedOut, packetPulledOut))"
attr title "outgoing packet lengths"
attr unit b
vector 124 UseCase.Actuator.eth[0].macLayer.queue incomingPacketLengths:vector ETV
attr interpolationmode none
attr recordingmode vector
attr source packetLength(packetPushStarted)
attr title "incoming packet lengths"
attr unit b
vector 125 UseCase.switch5GC.ethernet.macHeaderInserter incomingPacketLengths:vector ETV
attr interpolationmode none
attr recordingmode vector
attr source "packetLength(merge(packetPushedIn, packetPulledIn))"
attr title "incoming packet lengths"
attr unit b
vector 126 UseCase.switch5GC.ethernet.macHeaderInserter outgoingPacketLengths:vector ETV
attr interpolationmode none
attr recordingmode vector
attr source "packetLength(merge(packetPushedOut, packetPulledOut))"
attr title "outgoing packet lengths"
attr unit b
vector 127 UseCase.switch5GC.ethernet.paddingInserter incomingPacketLengths:vector ETV
attr interpolationmode none
attr recordingmode vector
attr source "packetLength(merge(packetPushedIn, packetPulledIn))"
attr title "incoming packet lengths"
attr unit b
vector 128 UseCase.switch5GC.ethernet.paddingInserter outgoingPacketLengths:vector ETV
attr interpolationmode none
attr recordingmode vector
attr source "packetLength(merge(packetPushedOut, packetPulledOut))"
attr title "outgoing packet lengths"
attr unit b
vector 129 UseCase.switch5GC.ethernet.fcsInserter incomingPacketLengths:vector ETV
attr interpolationmode none
attr recordingmode vector
attr source "packetLength(merge(packetPushedIn, packetPulledIn))"
attr title "incoming packet lengths"
attr unit b
vector 130 UseCase.switch5GC.ethernet.fcsInserter outgoingPacketLengths:vector ETV
attr interpolationmode none
attr recordingmode vector
attr source "packetLength(merge(packetPushedOut, packetPulledOut))"
attr title "outgoing packet lengths"
attr unit b
vector 131 UseCase.switch5GC.eth[1].macLayer.queue incomingPacketLengths:vector ETV
attr interpolationmode none
attr recordingmode vector
attr source packetLength(packetPushStarted)
attr title "incoming packet lengths"
attr unit b
vector 132 UseCase.PLC.ethernet.macHeaderInserter incomingPacketLengths:vector ETV
attr interpolationmode none
attr recordingmode vector
attr source "packetLength(merge(packetPushedIn, packetPulledIn))"
attr title "incoming packet lengths"
attr unit b
vector 133 UseCase.PLC.ethernet.macHeaderInserter outgoingPacketLengths:vector ETV
attr interpolationmode none
attr recordingmode vector
attr source "packetLength(merge(packetPushedOut, packetPulledOut))"
attr title "outgoing packet lengths"
attr unit b
vector 134 UseCase.PLC.ethernet.paddingInserter incomingPacketLengths:vector ETV
attr interpolationmode none
attr recordingmode vector
attr source "packetLength(merge(packetPushedIn, packetPulledIn))"
attr title "incoming packet lengths"
attr unit b
vector 135 UseCase.PLC.ethernet.paddingInserter outgoingPacketLengths:vector ETV
attr interpolationmode none
attr recordingmode vector
attr source "packetLength(merge(packetPushedOut, packetPulledOut))"
attr title "outgoing packet lengths"
attr unit b
vector 136 UseCase.PLC.ethernet.fcsInserter incomingPacketLengths:vector ETV
attr interpolationmode none
attr recordingmode vector
attr source "packetLength(merge(packetPushedIn, packetPulledIn))"
attr title "incoming packet lengths"
attr unit b
vector 137 UseCase.PLC.ethernet.fcsInserter outgoingPacketLengths:vector ETV
attr interpolationmode none
attr recordingmode vector
attr source "packetLength(merge(packetPushedOut, packetPulledOut))"
attr title "outgoing packet lengths"
attr unit b
vector 138 UseCase.PLC.eth[0].macLayer.queue incomingPacketLengths:vector ETV
attr interpolationmode none
attr recordingmode vector
attr source packetLength(packetPushStarted)
attr title "incoming packet lengths"
attr unit b
vector 139 UseCase.Sensor.ethernet.macHeaderInserter incomingPacketLengths:vector ETV
attr interpolationmode none
attr recordingmode vector
attr source "packetLength(merge(packetPushedIn, packetPulledIn))"
attr title "incoming packet lengths"
attr unit b
vector 140 UseCase.Sensor.ethernet.macHeaderInserter outgoingPacketLengths:vector ETV
attr interpolationmode none
attr recordingmode vector
attr source "packetLength(merge(packetPushedOut, packetPulledOut))"
attr title "outgoing packet lengths"
attr unit b
vector 141 UseCase.Sensor.ethernet.paddingInserter incomingPacketLengths:vector ETV
attr interpolationmode none
attr recordingmode vector
attr source "packetLength(merge(packetPushedIn, packetPulledIn))"
attr title "incoming packet lengths"
attr unit b
vector 142 UseCase.Sensor.ethernet.paddingInserter outgoingPacketLengths:vector ETV
attr interpolationmode none
attr recordingmode vector
attr source "packetLength(merge(packetPushedOut, packetPulledOut))"
attr title "outgoing packet lengths"
attr unit b
vector 143 UseCase.Sensor.ethernet.fcsInserter incomingPacketLengths:vector ETV
attr interpolationmode none
attr recordingmode vector
attr source "packetLength(merge(packetPushedIn, packetPulledIn))"
attr title "incoming packet lengths"
attr unit b
vector 144 UseCase.Sensor.ethernet.fcsInserter outgoingPacketLengths:vector ETV
attr interpolationmode none
attr recordingmode vector
attr source "packetLength(merge(packetPushedOut, packetPulledOut))"
attr title "outgoing packet lengths"
attr unit b
vector 145 UseCase.Sensor.eth[0].macLayer.queue incomingPacketLengths:vector ETV
attr interpolationmode none
attr recordingmode vector
attr source packetLength(packetPushStarted)
attr title "incoming packet lengths"
attr unit b
vector 146 UseCase.Actuator.eth[0].macLayer.queue queueingTime:vector ETV
attr interpolationmode none
attr recordingmode vector
attr source queueingTime(packetPulled)
attr title "queueing times"
attr unit s
vector 147 UseCase.Actuator.eth[0].macLayer.queue outgoingPacketLengths:vector ETV
attr interpolationmode none
attr recordingmode vector
attr source packetLength(packetPulled)
attr title "outgoing packet lengths"
attr unit b
vector 148 UseCase.Actuator.eth[0].macLayer.server incomingPacketLengths:vector ETV
attr interpolationmode none
attr recordingmode vector
attr source packetLength(packetPulled)
attr title "incoming packet lengths"
attr unit b
vector 149 UseCase.Actuator.eth[0].macLayer.server outgoingPacketLengths:vector ETV
attr interpolationmode none
attr recordingmode vector
attr source packetLength(packetPushed)
attr title "outgoing packet lengths"
attr unit b
vector 150 UseCase.Actuator.eth[0].macLayer.outboundEmitter incomingPacketLengths:vector ETV
attr interpolationmode none
attr recordingmode vector
attr source "packetLength(merge(packetPushedIn, packetPulledIn))"
attr title "incoming packet lengths"
attr unit b
vector 151 UseCase.Actuator.eth[0].macLayer.outboundEmitter outgoingPacketLengths:vector ETV
attr interpolationmode none
attr recordingmode vector
attr source "packetLength(merge(packetPushedOut, packetPulledOut))"
attr title "outgoing packet lengths"
attr unit b
vector 152 UseCase.Actuator.eth[0].phyLayer.phyHeaderInserter incomingPacketLengths:vector ETV
attr interpolationmode none
attr recordingmode vector
attr source "packetLength(merge(packetPushedIn, packetPulledIn))"
attr title "incoming packet lengths"
attr unit b
vector 153 UseCase.Actuator.eth[0].phyLayer.phyHeaderInserter outgoingPacketLengths:vector ETV
attr interpolationmode none
attr recordingmode vector
attr source "packetLength(merge(packetPushedOut, packetPulledOut))"
attr title "outgoing packet lengths"
attr unit b
vector 154 UseCase.Actuator.eth[0].phyLayer.outboundEmitter incomingPacketLengths:vector ETV
attr interpolationmode none
attr recordingmode vector
attr source "packetLength(merge(packetPushedIn, packetPulledIn))"
attr title "incoming packet lengths"
attr unit b
vector 155 UseCase.Actuator.eth[0].phyLayer.outboundEmitter outgoingPacketLengths:vector ETV
attr interpolationmode none
attr recordingmode vector
attr source "packetLength(merge(packetPushedOut, packetPulledOut))"
attr title "outgoing packet lengths"
attr unit b
vector 156 UseCase.switch5GC.eth[1].macLayer.queue queueingTime:vector ETV
attr interpolationmode none
attr recordingmode vector
attr source queueingTime(packetPulled)
attr title "queueing times"
attr unit s
vector 157 UseCase.switch5GC.eth[1].macLayer.queue outgoingPacketLengths:vector ETV
attr interpolationmode none
attr recordingmode vector
attr source packetLength(packetPulled)
attr title "outgoing packet lengths"
attr unit b
vector 158 UseCase.switch5GC.eth[1].macLayer.server incomingPacketLengths:vector ETV
attr interpolationmode none
attr recordingmode vector
attr source packetLength(packetPulled)
attr title "incoming packet lengths"
attr unit b
vector 159 UseCase.switch5GC.eth[1].macLayer.server outgoingPacketLengths:vector ETV
attr interpolationmode none
attr recordingmode vector
attr source packetLength(packetPushed)
attr title "outgoing packet lengths"
attr unit b
vector 160 UseCase.switch5GC.eth[1].macLayer.outboundEmitter incomingPacketLengths:vector ETV
attr interpolationmode none
attr recordingmode vector
attr source "packetLength(merge(packetPushedIn, packetPulledIn))"
attr title "incoming packet lengths"
attr unit b
vector 161 UseCase.switch5GC.eth[1].macLayer.outboundEmitter outgoingPacketLengths:vector ETV
attr interpolationmode none
attr recordingmode vector
attr source "packetLength(merge(packetPushedOut, packetPulledOut))"
attr title "outgoing packet lengths"
attr unit b
vector 162 UseCase.switch5GC.eth[1].phyLayer.phyHeaderInserter incomingPacketLengths:vector ETV
attr interpolationmode none
attr recordingmode vector
attr source "packetLength(merge(packetPushedIn, packetPulledIn))"
attr title "incoming packet lengths"
attr unit b
vector 163 UseCase.switch5GC.eth[1].phyLayer.phyHeaderInserter outgoingPacketLengths:vector ETV
attr interpolationmode none
attr recordingmode vector
attr source "packetLength(merge(packetPushedOut, packetPulledOut))"
attr title "outgoing packet lengths"
attr unit b
vector 164 UseCase.switch5GC.eth[1].phyLayer.outboundEmitter incomingPacketLengths:vector ETV
attr interpolationmode none
attr recordingmode vector
attr source "packetLength(merge(packetPushedIn, packetPulledIn))"
attr title "incoming packet lengths"
attr unit b
vector 165 UseCase.switch5GC.eth[1].phyLayer.outboundEmitter outgoingPacketLengths:vector ETV
attr interpolationmode none
attr recordingmode vector
attr source "packetLength(merge(packetPushedOut, packetPulledOut))"
attr title "outgoing packet lengths"
attr unit b
vector 166 UseCase.PLC.eth[0].macLayer.queue queueingTime:vector ETV
attr interpolationmode none
attr recordingmode vector
attr source queueingTime(packetPulled)
attr title "queueing times"
attr unit s
vector 167 UseCase.PLC.eth[0].macLayer.queue outgoingPacketLengths:vector ETV
attr interpolationmode none
attr recordingmode vector
attr source packetLength(packetPulled)
attr title "outgoing packet lengths"
attr unit b
vector 168 UseCase.PLC.eth[0].macLayer.server incomingPacketLengths:vector ETV
attr interpolationmode none
attr recordingmode vector
attr source packetLength(packetPulled)
attr title "incoming packet lengths"
attr unit b
vector 169 UseCase.PLC.eth[0].macLayer.server outgoingPacketLengths:vector ETV
attr interpolationmode none
attr recordingmode vector
attr source packetLength(packetPushed)
attr title "outgoing packet lengths"
attr unit b
vector 170 UseCase.PLC.eth[0].macLayer.outboundEmitter incomingPacketLengths:vector ETV
attr interpolationmode none
attr recordingmode vector
attr source "packetLength(merge(packetPushedIn, packetPulledIn))"
attr title "incoming packet lengths"
attr unit b
vector 171 UseCase.PLC.eth[0].macLayer.outboundEmitter outgoingPacketLengths:vector ETV
attr interpolationmode none
attr recordingmode vector
attr source "packetLength(merge(packetPushedOut, packetPulledOut))"
attr title "outgoing packet lengths"
attr unit b
vector 172 UseCase.PLC.eth[0].phyLayer.phyHeaderInserter incomingPacketLengths:vector ETV
attr interpolationmode none
attr recordingmode vector
attr source "packetLength(merge(packetPushedIn, packetPulledIn))"
attr title "incoming packet lengths"
attr unit b
vector 173 UseCase.PLC.eth[0].phyLayer.phyHeaderInserter outgoingPacketLengths:vector ETV
attr interpolationmode none
attr recordingmode vector
attr source "packetLength(merge(packetPushedOut, packetPulledOut))"
attr title "outgoing packet lengths"
attr unit b
vector 174 UseCase.PLC.eth[0].phyLayer.outboundEmitter incomingPacketLengths:vector ETV
attr interpolationmode none
attr recordingmode vector
attr source "packetLength(merge(packetPushedIn, packetPulledIn))"
attr title "incoming packet lengths"
attr unit b
vector 175 UseCase.PLC.eth[0].phyLayer.outboundEmitter outgoingPacketLengths:vector ETV
attr interpolationmode none
attr recordingmode vector
attr source "packetLength(merge(packetPushedOut, packetPulledOut))"
attr title "outgoing packet lengths"
attr unit b
vector 176 UseCase.Sensor.eth[0].macLayer.queue queueingTime:vector ETV
attr interpolationmode none
attr recordingmode vector
attr source queueingTime(packetPulled)
attr title "queueing times"
attr unit s
vector 177 UseCase.Sensor.eth[0].macLayer.queue outgoingPacketLengths:vector ETV
attr interpolationmode none
attr recordingmode vector
attr source packetLength(packetPulled)
attr title "outgoing packet lengths"
attr unit b
vector 178 UseCase.Sensor.eth[0].macLayer.server incomingPacketLengths:vector ETV
attr interpolationmode none
attr recordingmode vector
attr source packetLength(packetPulled)
attr title "incoming packet lengths"
attr unit b
vector 179 UseCase.Sensor.eth[0].macLayer.server outgoingPacketLengths:vector ETV
attr interpolationmode none
attr recordingmode vector
attr source packetLength(packetPushed)
attr title "outgoing packet lengths"
attr unit b
vector 180 UseCase.Sensor.eth[0].macLayer.outboundEmitter incomingPacketLengths:vector ETV
attr interpolationmode none
attr recordingmode vector
attr source "packetLength(merge(packetPushedIn, packetPulledIn))"
attr title "incoming packet lengths"
attr unit b
vector 181 UseCase.Sensor.eth[0].macLayer.outboundEmitter outgoingPacketLengths:vector ETV
attr interpolationmode none
attr recordingmode vector
attr source "packetLength(merge(packetPushedOut, packetPulledOut))"
attr title "outgoing packet lengths"
attr unit b
vector 182 UseCase.Sensor.eth[0].phyLayer.phyHeaderInserter incomingPacketLengths:vector ETV
attr interpolationmode none
attr recordingmode vector
attr source "packetLength(merge(packetPushedIn, packetPulledIn))"
attr title "incoming packet lengths"
attr unit b
vector 183 UseCase.Sensor.eth[0].phyLayer.phyHeaderInserter outgoingPacketLengths:vector ETV
attr interpolationmode none
attr recordingmode vector
attr source "packetLength(merge(packetPushedOut, packetPulledOut))"
attr title "outgoing packet lengths"
attr unit b
vector 184 UseCase.Sensor.eth[0].phyLayer.outboundEmitter incomingPacketLengths:vector ETV
attr interpolationmode none
attr recordingmode vector
attr source "packetLength(merge(packetPushedIn, packetPulledIn))"
attr title "incoming packet lengths"
attr unit b
vector 185 UseCase.Sensor.eth[0].phyLayer.outboundEmitter outgoingPacketLengths:vector ETV
attr interpolationmode none
attr recordingmode vector
attr source "packetLength(merge(packetPushedOut, packetPulledOut))"
attr title "outgoing packet lengths"
attr unit b
vector 186 UseCase.Actuator.eth[0].phyLayer.transmitter transmissionTime:vector ETV
attr interpolationmode none
attr recordingmode vector
attr source packetDuration(transmissionEnded)
attr title "transmission time"
attr unit s
vector 187 UseCase.switch5GC.eth[1].phyLayer.transmitter transmissionTime:vector ETV
attr interpolationmode none
attr recordingmode vector
attr source packetDuration(transmissionEnded)
attr title "transmission time"
attr unit s
vector 188 UseCase.PLC.eth[0].phyLayer.transmitter transmissionTime:vector ETV
attr interpolationmode none
attr recordingmode vector
attr source packetDuration(transmissionEnded)
attr title "transmission time"
attr unit s
vector 189 UseCase.Sensor.eth[0].phyLayer.transmitter transmissionTime:vector ETV
attr interpolationmode none
attr recordingmode vector
attr source packetDuration(transmissionEnded)
attr title "transmission time"
attr unit s
vector 190 UseCase.switchTSN.eth[2].phyLayer.receiver receptionTime:vector ETV
attr interpolationmode none
attr recordingmode vector
attr source packetDuration(receptionEnded)
attr title "reception time"
attr unit s
vector 191 UseCase.switchTSN.eth[2].phyLayer.inboundEmitter incomingPacketLengths:vector ETV
attr interpolationmode none
attr recordingmode vector
attr source "packetLength(merge(packetPushedIn, packetPulledIn))"
attr title "incoming packet lengths"
attr unit b
vector 192 UseCase.switchTSN.eth[2].phyLayer.inboundEmitter outgoingPacketLengths:vector ETV
attr interpolationmode none
attr recordingmode vector
attr source "packetLength(merge(packetPushedOut, packetPulledOut))"
attr title "outgoing packet lengths"
attr unit b
vector 193 UseCase.switchTSN.eth[2].phyLayer.phyHeaderChecker incomingPacketLengths:vector ETV
attr interpolationmode none
attr recordingmode vector
attr source "packetLength(merge(packetPushedIn, packetPulledIn))"
attr title "incoming packet lengths"
attr unit b
vector 194 UseCase.switchTSN.eth[2].phyLayer.phyHeaderChecker outgoingPacketLengths:vector ETV
attr interpolationmode none
attr recordingmode vector
attr source "packetLength(merge(packetPushedOut, packetPulledOut))"
attr title "outgoing packet lengths"
attr unit b
vector 195 UseCase.switchTSN.eth[2].macLayer.inboundEmitter incomingPacketLengths:vector ETV
attr interpolationmode none
attr recordingmode vector
attr source "packetLength(merge(packetPushedIn, packetPulledIn))"
attr title "incoming packet lengths"
attr unit b
vector 196 UseCase.switchTSN.eth[2].macLayer.inboundEmitter outgoingPacketLengths:vector ETV
attr interpolationmode none
attr recordingmode vector
attr source "packetLength(merge(packetPushedOut, packetPulledOut))"
attr title "outgoing packet lengths"
attr unit b
vector 197 UseCase.switchTSN.eth[2].macLayer.fcsChecker incomingPacketLengths:vector ETV
attr interpolationmode none
attr recordingmode vector
attr source "packetLength(merge(packetPushedIn, packetPulledIn))"
attr title "incoming packet lengths"
attr unit b
vector 198 UseCase.switchTSN.eth[2].macLayer.fcsChecker outgoingPacketLengths:vector ETV
attr interpolationmode none
attr recordingmode vector
attr source "packetLength(merge(packetPushedOut, packetPulledOut))"
attr title "outgoing packet lengths"
attr unit b
vector 199 UseCase.switchTSN.ethernet.fcsChecker incomingPacketLengths:vector ETV
attr interpolationmode none
attr recordingmode vector
attr source "packetLength(merge(packetPushedIn, packetPulledIn))"
attr title "incoming packet lengths"
attr unit b
vector 200 UseCase.switchTSN.ethernet.fcsChecker outgoingPacketLengths:vector ETV
attr interpolationmode none
attr recordingmode vector
attr source "packetLength(merge(packetPushedOut, packetPulledOut))"
attr title "outgoing packet lengths"
attr unit b
vector 201 UseCase.switchTSN.ethernet.macHeaderChecker incomingPacketLengths:vector ETV
attr interpolationmode none
attr recordingmode vector
attr source "packetLength(merge(packetPushedIn, packetPulledIn))"
attr title "incoming packet lengths"
attr unit b
vector 202 UseCase.switchTSN.ethernet.macHeaderChecker outgoingPacketLengths:vector ETV
attr interpolationmode none
attr recordingmode vector
attr source "packetLength(merge(packetPushedOut, packetPulledOut))"
attr title "outgoing packet lengths"
attr unit b
vector 203 UseCase.switchTSN.bridging.interfaceRelay.learner incomingPacketLengths:vector ETV
attr interpolationmode none
attr recordingmode vector
attr source "packetLength(merge(packetPushedIn, packetPulledIn))"
attr title "incoming packet lengths"
attr unit b
vector 204 UseCase.switchTSN.bridging.interfaceRelay.learner outgoingPacketLengths:vector ETV
attr interpolationmode none
attr recordingmode vector
attr source "packetLength(merge(packetPushedOut, packetPulledOut))"
attr title "outgoing packet lengths"
attr unit b
vector 205 UseCase.NSTT.eth[1].mac rxPkOk:vector(packetBytes) ETV
attr interpolationmode none
attr recordingmode vector(packetBytes)
attr source rxPkOk
attr title "packets received OK, packetBytes"
vector 206 UseCase.NSTT.eth[1].mac passedUpPk:vector(packetBytes) ETV
attr interpolationmode none
attr recordingmode vector(packetBytes)
attr source packetSentToUpper
attr title "packets passed to higher layer, packetBytes"
vector 207 UseCase.switch5GC.eth[0].phyLayer.receiver receptionTime:vector ETV
attr interpolationmode none
attr recordingmode vector
attr source packetDuration(receptionEnded)
attr title "reception time"
attr unit s
vector 208 UseCase.switch5GC.eth[0].phyLayer.inboundEmitter incomingPacketLengths:vector ETV
attr interpolationmode none
attr recordingmode vector
attr source "packetLength(merge(packetPushedIn, packetPulledIn))"
attr title "incoming packet lengths"
attr unit b
vector 209 UseCase.switch5GC.eth[0].phyLayer.inboundEmitter outgoingPacketLengths:vector ETV
attr interpolationmode none
attr recordingmode vector
attr source "packetLength(merge(packetPushedOut, packetPulledOut))"
attr title "outgoing packet lengths"
attr unit b
vector 210 UseCase.switch5GC.eth[0].phyLayer.phyHeaderChecker incomingPacketLengths:vector ETV
attr interpolationmode none
attr recordingmode vector
attr source "packetLength(merge(packetPushedIn, packetPulledIn))"
attr title "incoming packet lengths"
attr unit b
vector 211 UseCase.switch5GC.eth[0].phyLayer.phyHeaderChecker outgoingPacketLengths:vector ETV
attr interpolationmode none
attr recordingmode vector
attr source "packetLength(merge(packetPushedOut, packetPulledOut))"
attr title "outgoing packet lengths"
attr unit b
vector 212 UseCase.switch5GC.eth[0].macLayer.inboundEmitter incomingPacketLengths:vector ETV
attr interpolationmode none
attr recordingmode vector
attr source "packetLength(merge(packetPushedIn, packetPulledIn))"
attr title "incoming packet lengths"
attr unit b
vector 213 UseCase.switch5GC.eth[0].macLayer.inboundEmitter outgoingPacketLengths:vector ETV
attr interpolationmode none
attr recordingmode vector
attr source "packetLength(merge(packetPushedOut, packetPulledOut))"
attr title "outgoing packet lengths"
attr unit b
vector 214 UseCase.switch5GC.eth[0].macLayer.fcsChecker incomingPacketLengths:vector ETV
attr interpolationmode none
attr recordingmode vector
attr source "packetLength(merge(packetPushedIn, packetPulledIn))"
attr title "incoming packet lengths"
attr unit b
vector 215 UseCase.switch5GC.eth[0].macLayer.fcsChecker outgoingPacketLengths:vector ETV
attr interpolationmode none
attr recordingmode vector
attr source "packetLength(merge(packetPushedOut, packetPulledOut))"
attr title "outgoing packet lengths"
attr unit b
vector 216 UseCase.switch5GC.ethernet.fcsChecker incomingPacketLengths:vector ETV
attr interpolationmode none
attr recordingmode vector
attr source "packetLength(merge(packetPushedIn, packetPulledIn))"
attr title "incoming packet lengths"
attr unit b
vector 217 UseCase.switch5GC.ethernet.fcsChecker outgoingPacketLengths:vector ETV
attr interpolationmode none
attr recordingmode vector
attr source "packetLength(merge(packetPushedOut, packetPulledOut))"
attr title "outgoing packet lengths"
attr unit b
vector 218 UseCase.switch5GC.ethernet.macHeaderChecker incomingPacketLengths:vector ETV
attr interpolationmode none
attr recordingmode vector
attr source "packetLength(merge(packetPushedIn, packetPulledIn))"
attr title "incoming packet lengths"
attr unit b
vector 219 UseCase.switch5GC.ethernet.macHeaderChecker outgoingPacketLengths:vector ETV
attr interpolationmode none
attr recordingmode vector
attr source "packetLength(merge(packetPushedOut, packetPulledOut))"
attr title "outgoing packet lengths"
attr unit b
vector 220 UseCase.switch5GC.bridging.interfaceRelay.learner incomingPacketLengths:vector ETV
attr interpolationmode none
attr recordingmode vector
attr source "packetLength(merge(packetPushedIn, packetPulledIn))"
attr title "incoming packet lengths"
attr unit b
vector 221 UseCase.switch5GC.bridging.interfaceRelay.learner outgoingPacketLengths:vector ETV
attr interpolationmode none
attr recordingmode vector
attr source "packetLength(merge(packetPushedOut, packetPulledOut))"
attr title "outgoing packet lengths"
attr unit b
vector 222 UseCase.switchTSN.eth[1].phyLayer.receiver receptionTime:vector ETV
attr interpolationmode none
attr recordingmode vector
attr source packetDuration(receptionEnded)
attr title "reception time"
attr unit s
vector 223 UseCase.switchTSN.eth[1].phyLayer.inboundEmitter incomingPacketLengths:vector ETV
attr interpolationmode none
attr recordingmode vector
attr source "packetLength(merge(packetPushedIn, packetPulledIn))"
attr title "incoming packet lengths"
attr unit b
vector 224 UseCase.switchTSN.eth[1].phyLayer.inboundEmitter outgoingPacketLengths:vector ETV
attr interpolationmode none
attr recordingmode vector
attr source "packetLength(merge(packetPushedOut, packetPulledOut))"
attr title "outgoing packet lengths"
attr unit b
vector 225 UseCase.switchTSN.eth[1].phyLayer.phyHeaderChecker incomingPacketLengths:vector ETV
attr interpolationmode none
attr recordingmode vector
attr source "packetLength(merge(packetPushedIn, packetPulledIn))"
attr title "incoming packet lengths"
attr unit b
vector 226 UseCase.switchTSN.eth[1].phyLayer.phyHeaderChecker outgoingPacketLengths:vector ETV
attr interpolationmode none
attr recordingmode vector
attr source "packetLength(merge(packetPushedOut, packetPulledOut))"
attr title "outgoing packet lengths"
attr unit b
vector 227 UseCase.switchTSN.eth[1].macLayer.inboundEmitter incomingPacketLengths:vector ETV
attr interpolationmode none
attr recordingmode vector
attr source "packetLength(merge(packetPushedIn, packetPulledIn))"
attr title "incoming packet lengths"
attr unit b
vector 228 UseCase.switchTSN.eth[1].macLayer.inboundEmitter outgoingPacketLengths:vector ETV
attr interpolationmode none
attr recordingmode vector
attr source "packetLength(merge(packetPushedOut, packetPulledOut))"
attr title "outgoing packet lengths"
attr unit b
vector 229 UseCase.switchTSN.eth[1].macLayer.fcsChecker incomingPacketLengths:vector ETV
attr interpolationmode none
attr recordingmode vector
attr source "packetLength(merge(packetPushedIn, packetPulledIn))"
attr title "incoming packet lengths"
attr unit b
vector 230 UseCase.switchTSN.eth[1].macLayer.fcsChecker outgoingPacketLengths:vector ETV
attr interpolationmode none
attr recordingmode vector
attr source "packetLength(merge(packetPushedOut, packetPulledOut))"
attr title "outgoing packet lengths"
attr unit b
vector 231 UseCase.NSTT.ethernet decapPk:vector(packetBytes) ETV
attr interpolationmode none
attr recordingmode vector(packetBytes)
attr source decapPk
attr title "packets decapsulated, packetBytes"
vector 232 UseCase.NSTT.udp packetSent:vector(packetBytes) ETV
attr interpolationmode none
attr recordingmode vector(packetBytes)
attr source packetSent
attr title "packets sent, packetBytes"
vector 233 UseCase.NSTT.ethernet encapPk:vector(packetBytes) ETV
attr interpolationmode none
attr recordingmode vector(packetBytes)
attr source encapPk
attr title "packets encapsulated, packetBytes"
vector 234 UseCase.NSTT.eth[0].queue incomingPacketLengths:vector ETV
attr interpolationmode none
attr recordingmode vector
attr source packetLength(packetPushStarted)
attr title "incoming packet lengths"
attr unit b
vector 235 UseCase.NSTT.eth[0].queue queueingTime:vector ETV
attr interpolationmode none
attr recordingmode vector
attr source queueingTime(packetPulled)
attr title "queueing times"
attr unit s
vector 236 UseCase.NSTT.eth[0].queue outgoingPacketLengths:vector ETV
attr interpolationmode none
attr recordingmode vector
attr source packetLength(packetPulled)
attr title "outgoing packet lengths"
attr unit b
vector 237 UseCase.NSTT.eth[0].mac packetReceivedFromUpper:vector(packetBytes) ETV
attr interpolationmode none
attr recordingmode vector(packetBytes)
attr source packetReceivedFromUpper
attr title "packet bytes from higher layer, packetBytes"
vector 238 UseCase.NSTT.eth[0].mac txPk:vector(packetBytes) ETV
attr interpolationmode none
attr recordingmode vector(packetBytes)
attr source packetSentToLower
attr title "packets transmitted, packetBytes"
vector 239 UseCase.upf.ethIf.phyLayer.receiver receptionTime:vector ETV
attr interpolationmode none
attr recordingmode vector
attr source packetDuration(receptionEnded)
attr title "reception time"
attr unit s
vector 240 UseCase.upf.ethIf.phyLayer.inboundEmitter incomingPacketLengths:vector ETV
attr interpolationmode none
attr recordingmode vector
attr source "packetLength(merge(packetPushedIn, packetPulledIn))"
attr title "incoming packet lengths"
attr unit b
vector 241 UseCase.upf.ethIf.phyLayer.inboundEmitter outgoingPacketLengths:vector ETV
attr interpolationmode none
attr recordingmode vector
attr source "packetLength(merge(packetPushedOut, packetPulledOut))"
attr title "outgoing packet lengths"
attr unit b
vector 242 UseCase.upf.ethIf.phyLayer.phyHeaderChecker incomingPacketLengths:vector ETV
attr interpolationmode none
attr recordingmode vector
attr source "packetLength(merge(packetPushedIn, packetPulledIn))"
attr title "incoming packet lengths"
attr unit b
vector 243 UseCase.upf.ethIf.phyLayer.phyHeaderChecker outgoingPacketLengths:vector ETV
attr interpolationmode none
attr recordingmode vector
attr source "packetLength(merge(packetPushedOut, packetPulledOut))"
attr title "outgoing packet lengths"
attr unit b
vector 244 UseCase.upf.ethIf.macLayer.inboundEmitter incomingPacketLengths:vector ETV
attr interpolationmode none
attr recordingmode vector
attr source "packetLength(merge(packetPushedIn, packetPulledIn))"
attr title "incoming packet lengths"
attr unit b
vector 245 UseCase.upf.ethIf.macLayer.inboundEmitter outgoingPacketLengths:vector ETV
attr interpolationmode none
attr recordingmode vector
attr source "packetLength(merge(packetPushedOut, packetPulledOut))"
attr title "outgoing packet lengths"
attr unit b
vector 246 UseCase.upf.ethIf.macLayer.fcsChecker incomingPacketLengths:vector ETV
attr interpolationmode none
attr recordingmode vector
attr source "packetLength(merge(packetPushedIn, packetPulledIn))"
attr title "incoming packet lengths"
attr unit b
vector 247 UseCase.upf.ethIf.macLayer.fcsChecker outgoingPacketLengths:vector ETV
attr interpolationmode none
attr recordingmode vector
attr source "packetLength(merge(packetPushedOut, packetPulledOut))"
attr title "outgoing packet lengths"
attr unit b
vector 248 UseCase.upf.encapIf.fcsChecker incomingPacketLengths:vector ETV
attr interpolationmode none
attr recordingmode vector
attr source "packetLength(merge(packetPushedIn, packetPulledIn))"
attr title "incoming packet lengths"
attr unit b
vector 249 UseCase.upf.encapIf.fcsChecker outgoingPacketLengths:vector ETV
attr interpolationmode none
attr recordingmode vector
attr source "packetLength(merge(packetPushedOut, packetPulledOut))"
attr title "outgoing packet lengths"
attr unit b
vector 250 UseCase.upf.encapIf.macHeaderChecker incomingPacketLengths:vector ETV
attr interpolationmode none
attr recordingmode vector
attr source "packetLength(merge(packetPushedIn, packetPulledIn))"
attr title "incoming packet lengths"
attr unit b
vector 251 UseCase.upf.encapIf.macHeaderChecker outgoingPacketLengths:vector ETV
attr interpolationmode none
attr recordingmode vector
attr source "packetLength(merge(packetPushedOut, packetPulledOut))"
attr title "outgoing packet lengths"
attr unit b
vector 252 UseCase.upf.udp packetSent:vector(packetBytes) ETV
attr interpolationmode none
attr recordingmode vector(packetBytes)
attr source packetSent
attr title "packets sent, packetBytes"
vector 253 UseCase.upf.ethernet encapPk:vector(packetBytes) ETV
attr interpolationmode none
attr recordingmode vector(packetBytes)
attr source encapPk
attr title "packets encapsulated, packetBytes"
vector 254 UseCase.upf.eth[0].queue incomingPacketLengths:vector ETV
attr interpolationmode none
attr recordingmode vector
attr source packetLength(packetPushStarted)
attr title "incoming packet lengths"
attr unit b
vector 255 UseCase.upf.eth[0].queue queueingTime:vector ETV
attr interpolationmode none
attr recordingmode vector
attr source queueingTime(packetPulled)
attr title "queueing times"
attr unit s
vector 256 UseCase.upf.eth[0].queue outgoingPacketLengths:vector ETV
attr interpolationmode none
attr recordingmode vector
attr source packetLength(packetPulled)
attr title "outgoing packet lengths"
attr unit b
vector 257 UseCase.upf.eth[0].mac packetReceivedFromUpper:vector(packetBytes) ETV
attr interpolationmode none
attr recordingmode vector(packetBytes)
attr source packetReceivedFromUpper
attr title "packet bytes from higher layer, packetBytes"
vector 258 UseCase.upf.eth[0].mac txPk:vector(packetBytes) ETV
attr interpolationmode none
attr recordingmode vector(packetBytes)
attr source packetSentToLower
attr title "packets transmitted, packetBytes"
vector 259 UseCase.gNB.eth.phyLayer.receiver receptionTime:vector ETV
attr interpolationmode none
attr recordingmode vector
attr source packetDuration(receptionEnded)
attr title "reception time"
attr unit s
vector 260 UseCase.gNB.eth.phyLayer.inboundEmitter incomingPacketLengths:vector ETV
attr interpolationmode none
attr recordingmode vector
attr source "packetLength(merge(packetPushedIn, packetPulledIn))"
attr title "incoming packet lengths"
attr unit b
vector 261 UseCase.gNB.eth.phyLayer.inboundEmitter outgoingPacketLengths:vector ETV
attr interpolationmode none
attr recordingmode vector
attr source "packetLength(merge(packetPushedOut, packetPulledOut))"
attr title "outgoing packet lengths"
attr unit b
vector 262 UseCase.gNB.eth.phyLayer.phyHeaderChecker incomingPacketLengths:vector ETV
attr interpolationmode none
attr recordingmode vector
attr source "packetLength(merge(packetPushedIn, packetPulledIn))"
attr title "incoming packet lengths"
attr unit b
vector 263 UseCase.gNB.eth.phyLayer.phyHeaderChecker outgoingPacketLengths:vector ETV
attr interpolationmode none
attr recordingmode vector
attr source "packetLength(merge(packetPushedOut, packetPulledOut))"
attr title "outgoing packet lengths"
attr unit b
vector 264 UseCase.gNB.eth.macLayer.inboundEmitter incomingPacketLengths:vector ETV
attr interpolationmode none
attr recordingmode vector
attr source "packetLength(merge(packetPushedIn, packetPulledIn))"
attr title "incoming packet lengths"
attr unit b
vector 265 UseCase.gNB.eth.macLayer.inboundEmitter outgoingPacketLengths:vector ETV
attr interpolationmode none
attr recordingmode vector
attr source "packetLength(merge(packetPushedOut, packetPulledOut))"
attr title "outgoing packet lengths"
attr unit b
vector 266 UseCase.gNB.eth.macLayer.fcsChecker incomingPacketLengths:vector ETV
attr interpolationmode none
attr recordingmode vector
attr source "packetLength(merge(packetPushedIn, packetPulledIn))"
attr title "incoming packet lengths"
attr unit b
vector 267 UseCase.gNB.eth.macLayer.fcsChecker outgoingPacketLengths:vector ETV
attr interpolationmode none
attr recordingmode vector
attr source "packetLength(merge(packetPushedOut, packetPulledOut))"
attr title "outgoing packet lengths"
attr unit b
vector 268 UseCase.gNB.encap.fcsChecker incomingPacketLengths:vector ETV
attr interpolationmode none
attr recordingmode vector
attr source "packetLength(merge(packetPushedIn, packetPulledIn))"
attr title "incoming packet lengths"
attr unit b
vector 269 UseCase.gNB.encap.fcsChecker outgoingPacketLengths:vector ETV
attr interpolationmode none
attr recordingmode vector
attr source "packetLength(merge(packetPushedOut, packetPulledOut))"
attr title "outgoing packet lengths"
attr unit b
vector 270 UseCase.gNB.encap.macHeaderChecker incomingPacketLengths:vector ETV
attr interpolationmode none
attr recordingmode vector
attr source "packetLength(merge(packetPushedIn, packetPulledIn))"
attr title "incoming packet lengths"
attr unit b
vector 271 UseCase.gNB.encap.macHeaderChecker outgoingPacketLengths:vector ETV
attr interpolationmode none
attr recordingmode vector
attr source "packetLength(merge(packetPushedOut, packetPulledOut))"
attr title "outgoing packet lengths"
attr unit b
vector 272 UseCase.gNB.udp packetReceived:vector(packetBytes) ETV
attr interpolationmode none
attr recordingmode vector(packetBytes)
attr source packetReceived
attr title "packets received, packetBytes"
vector 273 UseCase.gNB.cellularNic.pdcpRrc receivedPacketFromUpperLayer:vector(packetBytes) ETV
attr interpolationmode none
attr recordingmode vector(packetBytes)
attr source receivedPacketFromUpperLayer
vector 274 UseCase.gNB.cellularNic.pdcpRrc sentPacketToLowerLayer:vector(packetBytes) ETV
attr interpolationmode none
attr recordingmode vector(packetBytes)
attr source sentPacketToLowerLayer
vector 275 UseCase.gNB.cellularNic.rlc.um receivedPacketFromUpperLayer:vector(packetBytes) ETV
attr interpolationmode none
attr recordingmode vector(packetBytes)
attr source receivedPacketFromUpperLayer
vector 276 UseCase.gNB.cellularNic.mac receivedPacketFromUpperLayer:vector(packetBytes) ETV
attr interpolationmode none
attr recordingmode vector(packetBytes)
attr source receivedPacketFromUpperLayer
vector 277 UseCase.switch5GC.eth[0].macLayer.queue incomingPacketLengths:vector ETV
attr interpolationmode none
attr recordingmode vector
attr source packetLength(packetPushStarted)
attr title "incoming packet lengths"
attr unit b
vector 278 UseCase.switch5GC.eth[0].macLayer.queue queueingTime:vector ETV
attr interpolationmode none
attr recordingmode vector
attr source queueingTime(packetPulled)
attr title "queueing times"
attr unit s
vector 279 UseCase.switch5GC.eth[0].macLayer.queue outgoingPacketLengths:vector ETV
attr interpolationmode none
attr recordingmode vector
attr source packetLength(packetPulled)
attr title "outgoing packet lengths"
attr unit b
vector 280 UseCase.switch5GC.eth[0].macLayer.server incomingPacketLengths:vector ETV
attr interpolationmode none
attr recordingmode vector
attr source packetLength(packetPulled)
attr title "incoming packet lengths"
attr unit b
vector 281 UseCase.switch5GC.eth[0].macLayer.server outgoingPacketLengths:vector ETV
attr interpolationmode none
attr recordingmode vector
attr source packetLength(packetPushed)
attr title "outgoing packet lengths"
attr unit b
vector 282 UseCase.switch5GC.eth[0].macLayer.outboundEmitter incomingPacketLengths:vector ETV
attr interpolationmode none
attr recordingmode vector
attr source "packetLength(merge(packetPushedIn, packetPulledIn))"
attr title "incoming packet lengths"
attr unit b
vector 283 UseCase.switch5GC.eth[0].macLayer.outboundEmitter outgoingPacketLengths:vector ETV
attr interpolationmode none
attr recordingmode vector
attr source "packetLength(merge(packetPushedOut, packetPulledOut))"
attr title "outgoing packet lengths"
attr unit b
vector 284 UseCase.switch5GC.eth[0].phyLayer.phyHeaderInserter incomingPacketLengths:vector ETV
attr interpolationmode none
attr recordingmode vector
attr source "packetLength(merge(packetPushedIn, packetPulledIn))"
attr title "incoming packet lengths"
attr unit b
vector 285 UseCase.switch5GC.eth[0].phyLayer.phyHeaderInserter outgoingPacketLengths:vector ETV
attr interpolationmode none
attr recordingmode vector
attr source "packetLength(merge(packetPushedOut, packetPulledOut))"
attr title "outgoing packet lengths"
attr unit b
vector 286 UseCase.switch5GC.eth[0].phyLayer.outboundEmitter incomingPacketLengths:vector ETV
attr interpolationmode none
attr recordingmode vector
attr source "packetLength(merge(packetPushedIn, packetPulledIn))"
attr title "incoming packet lengths"
attr unit b
vector 287 UseCase.switch5GC.eth[0].phyLayer.outboundEmitter outgoingPacketLengths:vector ETV
attr interpolationmode none
attr recordingmode vector
attr source "packetLength(merge(packetPushedOut, packetPulledOut))"
attr title "outgoing packet lengths"
attr unit b
vector 288 UseCase.switchTSN.ethernet.macHeaderInserter incomingPacketLengths:vector ETV
attr interpolationmode none
attr recordingmode vector
attr source "packetLength(merge(packetPushedIn, packetPulledIn))"
attr title "incoming packet lengths"
attr unit b
vector 289 UseCase.switchTSN.ethernet.macHeaderInserter outgoingPacketLengths:vector ETV
attr interpolationmode none
attr recordingmode vector
attr source "packetLength(merge(packetPushedOut, packetPulledOut))"
attr title "outgoing packet lengths"
attr unit b
vector 290 UseCase.switchTSN.ethernet.paddingInserter incomingPacketLengths:vector ETV
attr interpolationmode none
attr recordingmode vector
attr source "packetLength(merge(packetPushedIn, packetPulledIn))"
attr title "incoming packet lengths"
attr unit b
vector 291 UseCase.switchTSN.ethernet.paddingInserter outgoingPacketLengths:vector ETV
attr interpolationmode none
attr recordingmode vector
attr source "packetLength(merge(packetPushedOut, packetPulledOut))"
attr title "outgoing packet lengths"
attr unit b
vector 292 UseCase.switchTSN.ethernet.fcsInserter incomingPacketLengths:vector ETV
attr interpolationmode none
attr recordingmode vector
attr source "packetLength(merge(packetPushedIn, packetPulledIn))"
attr title "incoming packet lengths"
attr unit b
vector 293 UseCase.switchTSN.ethernet.fcsInserter outgoingPacketLengths:vector ETV
attr interpolationmode none
attr recordingmode vector
attr source "packetLength(merge(packetPushedOut, packetPulledOut))"
attr title "outgoing packet lengths"
attr unit b
vector 294 UseCase.switchTSN.eth[2].macLayer.queue incomingPacketLengths:vector ETV
attr interpolationmode none
attr recordingmode vector
attr source packetLength(packetPushStarted)
attr title "incoming packet lengths"
attr unit b
vector 295 UseCase.switchTSN.eth[1].macLayer.queue incomingPacketLengths:vector ETV
attr interpolationmode none
attr recordingmode vector
attr source packetLength(packetPushStarted)
attr title "incoming packet lengths"
attr unit b
vector 296 UseCase.switchTSN.eth[2].macLayer.queue queueingTime:vector ETV
attr interpolationmode none
attr recordingmode vector
attr source queueingTime(packetPulled)
attr title "queueing times"
attr unit s
vector 297 UseCase.switchTSN.eth[2].macLayer.queue outgoingPacketLengths:vector ETV
attr interpolationmode none
attr recordingmode vector
attr source packetLength(packetPulled)
attr title "outgoing packet lengths"
attr unit b
vector 298 UseCase.switchTSN.eth[2].macLayer.server incomingPacketLengths:vector ETV
attr interpolationmode none
attr recordingmode vector
attr source packetLength(packetPulled)
attr title "incoming packet lengths"
attr unit b
vector 299 UseCase.switchTSN.eth[2].macLayer.server outgoingPacketLengths:vector ETV
attr interpolationmode none
attr recordingmode vector
attr source packetLength(packetPushed)
attr title "outgoing packet lengths"
attr unit b
vector 300 UseCase.switchTSN.eth[2].macLayer.outboundEmitter incomingPacketLengths:vector ETV
attr interpolationmode none
attr recordingmode vector
attr source "packetLength(merge(packetPushedIn, packetPulledIn))"
attr title "incoming packet lengths"
attr unit b
vector 301 UseCase.switchTSN.eth[2].macLayer.outboundEmitter outgoingPacketLengths:vector ETV
attr interpolationmode none
attr recordingmode vector
attr source "packetLength(merge(packetPushedOut, packetPulledOut))"
attr title "outgoing packet lengths"
attr unit b
vector 302 UseCase.switchTSN.eth[2].phyLayer.phyHeaderInserter incomingPacketLengths:vector ETV
attr interpolationmode none
attr recordingmode vector
attr source "packetLength(merge(packetPushedIn, packetPulledIn))"
attr title "incoming packet lengths"
attr unit b
vector 303 UseCase.switchTSN.eth[2].phyLayer.phyHeaderInserter outgoingPacketLengths:vector ETV
attr interpolationmode none
attr recordingmode vector
attr source "packetLength(merge(packetPushedOut, packetPulledOut))"
attr title "outgoing packet lengths"
attr unit b
vector 304 UseCase.switchTSN.eth[2].phyLayer.outboundEmitter incomingPacketLengths:vector ETV
attr interpolationmode none
attr recordingmode vector
attr source "packetLength(merge(packetPushedIn, packetPulledIn))"
attr title "incoming packet lengths"
attr unit b
vector 305 UseCase.switchTSN.eth[2].phyLayer.outboundEmitter outgoingPacketLengths:vector ETV
attr interpolationmode none
attr recordingmode vector
attr source "packetLength(merge(packetPushedOut, packetPulledOut))"
attr title "outgoing packet lengths"
attr unit b
vector 306 UseCase.switchTSN.eth[1].macLayer.queue queueingTime:vector ETV
attr interpolationmode none
attr recordingmode vector
attr source queueingTime(packetPulled)
attr title "queueing times"
attr unit s
vector 307 UseCase.switchTSN.eth[1].macLayer.queue outgoingPacketLengths:vector ETV
attr interpolationmode none
attr recordingmode vector
attr source packetLength(packetPulled)
attr title "outgoing packet lengths"
attr unit b
vector 308 UseCase.switchTSN.eth[1].macLayer.server incomingPacketLengths:vector ETV
attr interpolationmode none
attr recordingmode vector
attr source packetLength(packetPulled)
attr title "incoming packet lengths"
attr unit b
vector 309 UseCase.switchTSN.eth[1].macLayer.server outgoingPacketLengths:vector ETV
attr interpolationmode none
attr recordingmode vector
attr source packetLength(packetPushed)
attr title "outgoing packet lengths"
attr unit b
vector 310 UseCase.switchTSN.eth[1].macLayer.outboundEmitter incomingPacketLengths:vector ETV
attr interpolationmode none
attr recordingmode vector
attr source "packetLength(merge(packetPushedIn, packetPulledIn))"
attr title "incoming packet lengths"
attr unit b
vector 311 UseCase.switchTSN.eth[1].macLayer.outboundEmitter outgoingPacketLengths:vector ETV
attr interpolationmode none
attr recordingmode vector
attr source "packetLength(merge(packetPushedOut, packetPulledOut))"
attr title "outgoing packet lengths"
attr unit b
vector 312 UseCase.switchTSN.eth[1].phyLayer.phyHeaderInserter incomingPacketLengths:vector ETV
attr interpolationmode none
attr recordingmode vector
attr source "packetLength(merge(packetPushedIn, packetPulledIn))"
attr title "incoming packet lengths"
attr unit b
vector 313 UseCase.switchTSN.eth[1].phyLayer.phyHeaderInserter outgoingPacketLengths:vector ETV
attr interpolationmode none
attr recordingmode vector
attr source "packetLength(merge(packetPushedOut, packetPulledOut))"
attr title "outgoing packet lengths"
attr unit b
vector 314 UseCase.switchTSN.eth[1].phyLayer.outboundEmitter incomingPacketLengths:vector ETV
[...]
597	65204236 7756 1664415 1882265 176.79994653855 200 234 0 22880 2505120 36035865600
598	65211992 7756 1664415 1882265 176.79994653855 200 234 0 22880 2505120 36035865600
599	65219748 7593 1664415 1882265 176.79994653855 200 234 0 18400 2032480 23652428800
600	65227341 7756 1664423 1882265 176.79994653855 200 234 0 32960 3555520 72958259200
601	65235097 7756 1664423 1882265 176.79994653855 200 234 0 32960 3555520 72958259200
602	65242853 7756 1664430 1882265 176.79994757855 200 234 0 35520 3825600 84509798400
603	65250609 5866 1664558 1882265 176.805 200 233 0 38720 4124480 98643456000
604	65256475 5866 1664558 1882265 176.805 200 233 0 43200 4592640 122390323200
605	65262341 5866 1664558 1882265 176.805 200 233 0 43200 4592640 122390323200
606	65268207 5866 1664558 1882265 176.805 200 233 0 43200 4592640 122390323200
607	65274073 5866 1664558 1882265 176.805 200 233 0 43200 4592640 122390323200
608	65279939 5866 1664558 1882265 176.805 200 233 0 44480 4726400 129645158400
609	65285805 5866 1664558 1882265 176.805 200 233 0 44480 4726400 129645158400
610	65291671 7490 1664560 1882265 176.805001072 200 233 0 0.004704 0.499392 0.001447815168
611	65299161 7258 1664560 1882265 176.805001168 200 233 0 44480 4726400 129645158400
612	65306419 7258 1664560 1882265 176.805001168 200 233 0 44480 4726400 129645158400
613	65313677 7258 1664560 1882265 176.805001168 200 233 0 44480 4726400 129645158400
614	65320935 7258 1664560 1882265 176.805001168 200 233 0 44480 4726400 129645158400
615	65328193 7258 1664560 1882265 176.805001168 200 233 0 44480 4726400 129645158400
616	65335451 7258 1664560 1882265 176.805001168 200 233 0 44480 4726400 129645158400
617	65342709 7258 1664560 1882265 176.805001168 200 233 0 47040 4993920 144781516800
618	65349967 7258 1664560 1882265 176.805001168 200 233 0 47040 4993920 144781516800
619	65357225 7258 1664560 1882265 176.805001168 200 233 0 47040 4993920 144781516800
620	65364483 7816 1664570 1882265 176.805001906 200 233 0 0.003552 0.379008 0.00083248128
621	65372299 7258 1664563 1882265 176.805002496 200 233 0 47040 4993920 144781516800
622	65379557 7816 1664580 1882265 176.805002532 200 233 0 0.002672 0.288352 0.000480049664
623	65387373 7258 1664569 1882265 176.805002546 200 233 0 27200 2920640 49330483200
624	65394631 7258 1664569 1882265 176.805002546 200 233 0 31680 3388800 66497126400
625	65401889 7258 1664569 1882265 176.805002546 200 233 0 31680 3388800 66497126400
626	65409147 7258 1664569 1882265 176.805002546 200 233 0 31680 3388800 66497126400
627	65416405 7258 1664569 1882265 176.805002546 200 233 0 31680 3388800 66497126400
628	65423663 7258 1664569 1882265 176.805002546 200 233 0 32960 3522560 71871897600
629	65430921 7258 1664569 1882265 176.805002546 200 233 0 32960 3522560 71871897600
630	65438179 7258 1664570 1882265 176.805002546 200 233 0 32960 3522560 71871897600
631	65445437 7258 1664570 1882265 176.805002546 200 233 0 32960 3522560 71871897600
632	65452695 7258 1664570 1882265 176.805002546 200 233 0 32960 3522560 71871897600
633	65459953 7258 1664570 1882265 176.805002546 200 233 0 32960 3522560 71871897600
634	65467211 7258 1664570 1882265 176.805002546 200 233 0 32960 3522560 71871897600
635	65474469 7258 1664570 1882265 176.805002546 200 233 0 32960 3522560 71871897600
636	65481727 7258 1664570 1882265 176.805002546 200 233 0 35520 3790080 83248128000
637	65488985 7258 1664570 1882265 176.805002546 200 233 0 35520 3790080 83248128000
638	65496243 7258 1664570 1882265 176.805002546 200 233 0 35520 3790080 83248128000
639	65503501 7258 1664573 1882265 176.805003586 200 233 0 35520 3790080 83248128000
640	65510759 7258 1664580 1882265 176.805003636 200 233 0 24000 2586240 38635315200
641	65518017 7258 1664580 1882265 176.805003636 200 233 0 24000 2586240 38635315200
642	65525275 7258 1664584 1882265 176.805004452 200 233 0 26720 2883520 48004966400
643	65532533 7258 1664592 1882265 176.805004502 200 233 0 26720 2883520 48004966400
644	65539791 7258 1664592 1882265 176.805004502 200 233 0 26720 2883520 48004966400
645	65547049 7258 1664592 1882265 176.805004502 200 233 0 26720 2883520 48004966400
646	65554307 7258 1664592 1882265 176.805004502 200 233 0 26720 2883520 48004966400
647	65561565 7258 1664592 1882265 176.805004502 200 233 0 24160 2616000 39467673600
648	65568823 7258 1664592 1882265 176.805004502 200 233 0 24160 2616000 39467673600
649	65576081 7258 1664592 1882265 176.805004502 200 233 0 24160 2616000 39467673600
650	65583339 7258 1664592 1882265 176.805004502 200 233 0 24160 2616000 39467673600
651	65590597 7258 1664592 1882265 176.805004502 200 233 0 24160 2616000 39467673600
652	65597855 7833 1664611 1882265 176.805005078 200 233 0 0.002672 0.28969944044529 0.0004818652597536
653	65605688 7272 1664610 1882265 176.805005078 200 233 0 24160 2628126.9640076 39614736856.042
654	65612960 7272 1664611 1882265 176.805005174 200 233 0 24160 2628126.9762629 39614737153.281
655	65620232 7272 1664611 1882265 176.805005174 200 233 0 24160 2628126.9762629 39614737153.281
656	65627504 7272 1664611 1882265 176.805005174 200 233 0 24160 2628126.9762629 39614737153.281
657	65634776 7272 1664611 1882265 176.805005174 200 233 0 24160 2628126.9762629 39614737153.281
658	65642048 7272 1664611 1882265 176.805005174 200 233 0 24160 2628126.9762629 39614737153.281
659	65649320 7272 1664611 1882265 176.805005174 200 233 0 24160 2628126.9762629 39614737153.281
660	65656592 7272 1664611 1882265 176.805005174 200 233 0 26720 2896994.4180699 48186526342.322
661	65663864 7272 1664611 1882265 176.805005174 200 233 0 26720 2896994.4180699 48186526342.322
662	65671136 7272 1664611 1882265 176.805005174 200 233 0 26720 2896994.4180699 48186526342.322
663	65678408 7040 1664613 1882265 176.80500599 200 233 0 26720 2896994.5338153 48186529461.541
664	65685448 7040 1664616 1882265 176.80500604 200 233 0 26720 2896994.5409077 48186529652.672
665	65692488 7040 1664616 1882265 176.80500604 200 233 0 26720 2896994.5409077 48186529652.672
666	65699528 7040 1664616 1882265 176.80500604 200 233 0 26720 2896994.5409077 48186529652.672
667	65706568 7040 1664616 1882265 176.80500604 200 233 0 26720 2896994.5409077 48186529652.672
668	65713608 7040 1664616 1882265 176.80500604 200 233 0 24160 2628127.0868169 39614739834.664
669	65720648 7040 1664616 1882265 176.80500604 200 233 0 24160 2628127.0868169 39614739834.664
670	65727688 7040 1664616 1882265 176.80500604 200 233 0 24160 2628127.0868169 39614739834.664
671	65734728 7040 1664616 1882265 176.80500604 200 233 0 24160 2628127.0868169 39614739834.664
672	65741768 7040 1664616 1882265 176.80500604 200 233 0 24160 2628127.0868169 39614739834.664
673	65748808 7040 1664616 1882265 176.80500604 200 233 0 24160 2628127.0868169 39614739834.664
674	65755848 7040 1664616 1882265 176.80500604 200 233 0 22880 2493693.3597715 35643550650.056
675	65762888 7040 1664616 1882265 176.80500604 200 233 0 22880 2493693.3597715 35643550650.056
676	65769928 6877 1664616 1882265 176.80500604 200 233 0 18400 2023175.3151127 23396593556.999
677	65776805 7348 1665548 1882265 175.99964968226 200 242 0 17280 432000 7464960000
678	65784153 7348 1665548 1882265 175.99964968226 200 242 0 16320 408000 6658560000
679	65791501 7348 1665548 1882265 175.99964968226 200 242 0 16320 408000 6658560000
680	65798849 7348 1665548 1882265 175.99964968226 200 242 0 12960 324000 4199040000
681	65806197 7348 1665548 1882265 175.99964968226 200 242 0 12960 324000 4199040000
682	65813545 7348 1665548 1882265 175.99964968226 200 242 0 12960 324000 4199040000
683	65820893 7639 1665546 1882265 175.998999638761 200 242 0 0.00064 0.016 1.024e-05
684	65828532 7639 1665557 1882265 175.999008643099 200 242 0 0.00064 0.016 1.024e-05
685	65836171 7664 1665572 1882265 175.999009557099 200 242 0 0.000864 0.0216 1.86624e-05
686	65843835 7664 1665587 1882265 175.999010759099 200 242 0 0.001152 0.0288 3.31776e-05
687	65851499 7398 1665602 1882265 175.99901247191 200 242 0 0.00064 0.016 1.024e-05
688	65858897 7639 1665610 1882265 175.999015013183 200 242 0 0.00064 0.016 1.024e-05
689	65866536 6924 1665747 1882265 176.000500864 200 241 0 0.00086834924878142 0.021604349248781 1.8669934417859e-05
690	65873460 6900 1665758 1882265 176.000501554 200 241 0 0.00064322612636583 0.016003226126366 1.024413984964e-05
691	65880360 7564 1665545 1882265 175.998988998869 200 242 0 4320 108000 466560000
692	65887924 7564 1665545 1882265 175.998988998869 200 242 0 5440 136000 739840000
693	65895488 7564 1665545 1882265 175.998988998869 200 242 0 5440 136000 739840000
694	65903052 7564 1665545 1882265 175.998988998869 200 242 0 5440 136000 739840000
695	65910616 7564 1665545 1882265 175.998988998869 200 242 0 5440 136000 739840000
696	65918180 7564 1665545 1882265 175.998988998869 200 242 0 5760 144000 829440000
697	65925744 7564 1665545 1882265 175.998988998869 200 242 0 5760 144000 829440000
698	65933308 7564 1665546 1882265 175.998988998869 200 242 0 5760 144000 829440000
699	65940872 7564 1665546 1882265 175.998988998869 200 242 0 5760 144000 829440000
700	65948436 7564 1665546 1882265 175.998988998869 200 242 0 5760 144000 829440000
701	65956000 7564 1665546 1882265 175.998988998869 200 242 0 5760 144000 829440000
702	65963564 7564 1665546 1882265 175.998988998869 200 242 0 5760 144000 829440000
703	65971128 7564 1665546 1882265 175.998988998869 200 242 0 5760 144000 829440000
704	65978692 7564 1665546 1882265 175.998988998869 200 242 0 6400 160000 1024000000
705	65986256 7564 1665546 1882265 175.998988998869 200 242 0 6400 160000 1024000000
706	65993820 7564 1665546 1882265 175.998988998869 200 242 0 6400 160000 1024000000
707	66001384 7564 1665547 1882265 175.998989638869 200 242 0 6400 160000 1024000000
708	66008948 7564 1665548 1882265 175.998989688869 200 242 0 6400 160000 1024000000
709	66016512 7564 1665548 1882265 175.998989688869 200 242 0 6400 160000 1024000000
710	66024076 7564 1665548 1882265 175.998989688869 200 242 0 6400 160000 1024000000
711	66031640 7564 1665548 1882265 175.998989688869 200 242 0 6400 160000 1024000000
712	66039204 7564 1665548 1882265 175.998989688869 200 242 0 5760 144000 829440000
713	66046768 7564 1665548 1882265 175.998989688869 200 242 0 5760 144000 829440000
714	66054332 7564 1665548 1882265 175.998989688869 200 242 0 5760 144000 829440000
715	66061896 7564 1665548 1882265 175.998989688869 200 242 0 5760 144000 829440000
716	66069460 7564 1665548 1882265 175.998989688869 200 242 0 5760 144000 829440000
717	66077024 7564 1665556 1882265 175.998998003298 200 242 0 5760 144000 829440000
718	66084588 7564 1665557 1882265 175.998998003298 200 242 0 5760 144000 829440000
719	66092152 7564 1665557 1882265 175.998998003298 200 242 0 5760 144000 829440000
720	66099716 7564 1665557 1882265 175.998998003298 200 242 0 5760 144000 829440000
721	66107280 7564 1665557 1882265 175.998998003298 200 242 0 5760 144000 829440000
722	66114844 7564 1665557 1882265 175.998998003298 200 242 0 5760 144000 829440000
723	66122408 7564 1665557 1882265 175.998998003298 200 242 0 5760 144000 829440000
724	66129972 7564 1665557 1882265 175.998998003298 200 242 0 6400 160000 1024000000
725	66137536 7564 1665557 1882265 175.998998003298 200 242 0 6400 160000 1024000000
726	66145100 7564 1665557 1882265 175.998998003298 200 242 0 6400 160000 1024000000
727	66152664 7564 1665565 1882265 175.998998643298 200 242 0 6400 160000 1024000000
728	66160228 7564 1665572 1882265 175.998998693298 200 242 0 8000 200000 1600000000
729	66167792 7564 1665572 1882265 175.998998693298 200 242 0 8000 200000 1600000000
730	66175356 7564 1665580 1882265 175.998999557298 200 242 0 8640 216000 1866240000
731	66182920 7564 1665581 1882265 175.998999607298 200 242 0 8640 216000 1866240000
732	66190484 7564 1665581 1882265 175.998999607298 200 242 0 8640 216000 1866240000
733	66198048 7564 1665581 1882265 175.998999607298 200 242 0 8640 216000 1866240000
734	66205612 7564 1665581 1882265 175.998999607298 200 242 0 8640 216000 1866240000
735	66213176 7564 1665581 1882265 175.998999607298 200 242 0 8000 200000 1600000000
736	66220740 7564 1665581 1882265 175.998999607298 200 242 0 8000 200000 1600000000
737	66228304 7564 1665581 1882265 175.998999607298 200 242 0 8000 200000 1600000000
738	66235868 7564 1665581 1882265 175.998999607298 200 242 0 8000 200000 1600000000
739	66243432 7564 1665581 1882265 175.998999607298 200 242 0 8000 200000 1600000000
740	66250996 7564 1665581 1882265 175.998999607298 200 242 0 8000 200000 1600000000
741	66258560 7564 1665581 1882265 175.998999607298 200 242 0 7680 192000 1474560000
742	66266124 7564 1665581 1882265 175.998999607298 200 242 0 7680 192000 1474560000
743	66273688 7564 1665581 1882265 175.998999607298 200 242 0 6560 164000 1075840000
744	66281252 7589 1665587 1882265 175.998999607298 200 242 0 10880 272000 2959360000
745	66288841 7589 1665587 1882265 175.998999607298 200 242 0 10880 272000 2959360000
746	66296430 7589 1665589 1882265 175.999000759298 200 242 0 11520 288000 3317760000
747	66304019 7589 1665590 1882265 175.999000809298 200 242 0 11520 288000 3317760000
748	66311608 7589 1665590 1882265 175.999000809298 200 242 0 11520 288000 3317760000
749	66319197 7589 1665590 1882265 175.999000809298 200 242 0 11520 288000 3317760000
750	66326786 7589 1665590 1882265 175.999000809298 200 242 0 11520 288000 3317760000
751	66334375 7589 1665590 1882265 175.999000809298 200 242 0 10880 272000 2959360000
752	66341964 7589 1665590 1882265 175.999000809298 200 242 0 10880 272000 2959360000
753	66349553 7589 1665590 1882265 175.999000809298 200 242 0 10880 272000 2959360000
754	66357142 7589 1665590 1882265 175.999000809298 200 242 0 10880 272000 2959360000
755	66364731 7589 1665590 1882265 175.999000809298 200 242 0 10880 272000 2959360000
756	66372320 7589 1665590 1882265 175.999000809298 200 242 0 10880 272000 2959360000
757	66379909 7589 1665590 1882265 175.999000809298 200 242 0 10560 264000 2787840000
758	66387498 7589 1665590 1882265 175.999000809298 200 242 0 10560 264000 2787840000
759	66395087 7564 1665590 1882265 175.999000809298 200 242 0 9440 236000 2227840000
760	66402651 7323 1665601 1882265 175.99900183206 200 242 0 4320 108000 466560000
761	66409974 7323 1665601 1882265 175.99900183206 200 242 0 5440 136000 739840000
762	66417297 7323 1665601 1882265 175.99900183206 200 242 0 5440 136000 739840000
763	66424620 7323 1665601 1882265 175.99900183206 200 242 0 5440 136000 739840000
764	66431943 7323 1665601 1882265 175.99900183206 200 242 0 5440 136000 739840000
765	66439266 7323 1665601 1882265 175.99900183206 200 242 0 5760 144000 829440000
766	66446589 7323 1665601 1882265 175.99900183206 200 242 0 5760 144000 829440000
767	66453912 7323 1665602 1882265 175.99900183206 200 242 0 5760 144000 829440000
768	66461235 7323 1665602 1882265 175.99900183206 200 242 0 5760 144000 829440000
769	66468558 7323 1665602 1882265 175.99900183206 200 242 0 5760 144000 829440000
770	66475881 7323 1665602 1882265 175.99900183206 200 242 0 5760 144000 829440000
771	66483204 7323 1665602 1882265 175.99900183206 200 242 0 5760 144000 829440000
772	66490527 7323 1665602 1882265 175.99900183206 200 242 0 5760 144000 829440000
773	66497850 7323 1665602 1882265 175.99900183206 200 242 0 6400 160000 1024000000
774	66505173 7323 1665602 1882265 175.99900183206 200 242 0 6400 160000 1024000000
775	66512496 7323 1665602 1882265 175.99900183206 200 242 0 6400 160000 1024000000
776	66519819 7323 1665603 1882265 175.99900247206 200 242 0 6400 160000 1024000000
777	66527142 7323 1665604 1882265 175.99900252206 200 242 0 6400 160000 1024000000
778	66534465 7323 1665604 1882265 175.99900252206 200 242 0 6400 160000 1024000000
779	66541788 7323 1665604 1882265 175.99900252206 200 242 0 6400 160000 1024000000
780	66549111 7323 1665604 1882265 175.99900252206 200 242 0 6400 160000 1024000000
781	66556434 7323 1665604 1882265 175.99900252206 200 242 0 5760 144000 829440000
782	66563757 7323 1665604 1882265 175.99900252206 200 242 0 5760 144000 829440000
783	66571080 7323 1665604 1882265 175.99900252206 200 242 0 5760 144000 829440000
784	66578403 7323 1665604 1882265 175.99900252206 200 242 0 5760 144000 829440000
785	66585726 7323 1665604 1882265 175.99900252206 200 242 0 5760 144000 829440000
786	66593049 7564 1665609 1882265 175.999004373283 200 242 0 4320 108000 466560000
787	66600613 7564 1665609 1882265 175.999004373283 200 242 0 5440 136000 739840000
788	66608177 7564 1665609 1882265 175.999004373283 200 242 0 5440 136000 739840000
789	66615741 7564 1665609 1882265 175.999004373283 200 242 0 5440 136000 739840000
790	66623305 7564 1665609 1882265 175.999004373283 200 242 0 5440 136000 739840000
791	66630869 7564 1665609 1882265 175.999004373283 200 242 0 5760 144000 829440000
792	66638433 7564 1665609 1882265 175.999004373283 200 242 0 5760 144000 829440000
793	66645997 7564 1665610 1882265 175.999004373283 200 242 0 5760 144000 829440000
794	66653561 7564 1665610 1882265 175.999004373283 200 242 0 5760 144000 829440000
795	66661125 7564 1665610 1882265 175.999004373283 200 242 0 5760 144000 829440000
796	66668689 7564 1665610 1882265 175.999004373283 200 242 0 5760 144000 829440000
797	66676253 7564 1665610 1882265 175.999004373283 200 242 0 5760 144000 829440000
798	66683817 7564 1665610 1882265 175.999004373283 200 242 0 5760 144000 829440000
799	66691381 7564 1665610 1882265 175.999004373283 200 242 0 6400 160000 1024000000
800	66698945 7564 1665610 1882265 175.999004373283 200 242 0 6400 160000 1024000000
801	66706509 7564 1665610 1882265 175.999004373283 200 242 0 6400 160000 1024000000
802	66714073 7564 1665611 1882265 175.999005013283 200 242 0 6400 160000 1024000000
803	66721637 7564 1665612 1882265 175.999005063283 200 242 0 6400 160000 1024000000
804	66729201 7564 1665612 1882265 175.999005063283 200 242 0 6400 160000 1024000000
805	66736765 7564 1665612 1882265 175.999005063283 200 242 0 6400 160000 1024000000
806	66744329 7564 1665612 1882265 175.999005063283 200 242 0 6400 160000 1024000000
807	66751893 7564 1665612 1882265 175.999005063283 200 242 0 5760 144000 829440000
808	66759457 7564 1665612 1882265 175.999005063283 200 242 0 5760 144000 829440000
809	66767021 7564 1665612 1882265 175.999005063283 200 242 0 5760 144000 829440000
810	66774585 7564 1665612 1882265 175.999005063283 200 242 0 5760 144000 829440000
811	66782149 7564 1665612 1882265 175.999005063283 200 242 0 5760 144000 829440000
812	66789713 5624 1665747 1882265 176.0005 200 241 0 8040.2010050251 200040.20100503 1600644832.2012
813	66795337 5624 1665747 1882265 176.0005 200 241 0 8040.2010050251 200040.20100503 1600644832.2012
814	66800961 6824 1665751 1882265 176.000500864 200 241 0 8683.4924878142 216043.49248781 1866993441.7859
815	66807785 6824 1665758 1882265 176.000500914 200 241 0 5788.9979009455 144028.99790095 829774896.69715
816	66814609 6824 1665758 1882265 176.000500914 200 241 0 5788.9979009455 144028.99790095 829774896.69715
817	66821433 6824 1665760 1882265 176.000501554 200 241 0 6432.2612636583 160032.26126366 1024413984.964
818	66828257 6824 1665761 1882265 176.000501604 200 241 0 6432.2644960025 160032.264496 1024414026.5465
819	66835081 6824 1665761 1882265 176.000501604 200 241 0 6432.2644960025 160032.264496 1024414026.5465
820	66841905 6824 1665761 1882265 176.000501604 200 241 0 6432.2644960025 160032.264496 1024414026.5465
821	66848729 6824 1665761 1882265 176.000501604 200 241 0 6432.2644960025 160032.264496 1024414026.5465
822	66855553 6824 1665761 1882265 176.000501604 200 241 0 5789.0380464023 144029.0380464 829775361.50269
823	66862377 6824 1665761 1882265 176.000501604 200 241 0 5789.0380464023 144029.0380464 829775361.50269
824	66869201 6824 1665761 1882265 176.000501604 200 241 0 5789.0380464023 144029.0380464 829775361.50269
825	66876025 6824 1665761 1882265 176.000501604 200 241 0 5789.0380464023 144029.0380464 829775361.50269
826	66882849 6824 1665761 1882265 176.000501604 200 241 0 5789.0380464023 144029.0380464 829775361.50269

