file 67164455 1715282368                                        
version 3
run UL-Synchronization-0-20240509-16:18:48-8467
attr configname UL-Synchronization
attr datetime 20240509-16:18:48
attr datetimef 20240509-161848
attr experiment UL-Synchronization
attr inifile omnetpp.ini
attr iterationvars ""
attr iterationvarsd ""
attr iterationvarsf ""
attr measurement ""
attr network UseCase
attr processid 8467
attr repetition 0
attr replication #0
attr resultdir results
attr runnumber 0
attr seedset 0
config image-path ../../inet/images:../../Simu5G/images
config extends timeSynchronization
config **.hasTimeSynchronization true
config **.referenceClock "\"switchTSN.clock\""
config *.switchTSN.clock.oscillator.driftRate 10ppm
config **.oscillator.driftRate "uniform(10ppm, 100ppm)"
config *.switchTSN.gptp.gptpNodeType "\"MASTER_NODE\""
config *.switchTSN.gptp.masterPorts "[\"eth0\",\"eth1\",\"eth2\"]"
config *.switchTSN.gptp.slavePort "\"\""
config *.switch*.gptp.masterPorts "[\"eth0\"]"
config *.switch*.gptp.slavePort "\"eth1\""
config *.NSTT.gptp.masterPorts "[\"eth1\"]"
config *.NSTT.gptp.slavePort "\"eth0\""
config *.NSTT.gptp.slaveDomains [0]
config *.DSTT.gptp.masterPorts "[\"eth0\"]"
config *.DSTT.gptp.slavePort "\"eth1\""
config *.DSTT.gptp.masterDomains [0]
config *.switch5GC.clock.displayStringTextFormat "\"diff: %d\""
config *.switchTSN.clock.displayStringTextFormat "\"time: %T\""
config *.upf.clock.typename IdealClock
config *.*TT.clock.typename IdealClock
config **.clock.oscillator.typename ConstantDriftOscillator
config *.*TT.gptp.typename Gptp5g
config *.*TT.gptp.fiveGPort "\"eth0\""
config *.visualizer.typename IntegratedMultiCanvasVisualizer
config *.visualizer.numInfoVisualizers 1
config *.visualizer.infoVisualizer[0].modules "\"**.clock\""
config *.visualizer.infoVisualizer[0].placementHint "\"bottom\""
config *.PLC.clock.displayStringTextFormat "\"diff: %d\""
config *.Actuato*.clock.displayStringTextFormat "\"diff: %d\""
config *.Sensor.clock.displayStringTextFormat "\"diff: %d\""
config *.switch*.clock.displayStringTextFormat "\"diff: %d\""
config network UseCase
config sim-time-limit 200s
config **.eth*.bitrate 1Gbps
config **.mobility.typename ""
config *.ue.macCellId 0
config *.ue.masterId 0
config *.ue.nrMacCellId 1
config *.ue.nrMasterId 1
config *.ue.intHostAddress "\"Sensor Actuator DSTT\""
config **.amcType "\"NRAmc\""
config **.targetBler 0.001
config **.blerShift 5
config **.numerologyIndex 1
config **.useTdd true
config **.numBands 200
config *.NSTT.**.translatorType "\"NS_TT\""

vector 0 UseCase.upf.clock timeChanged:vector ETV
attr interpolationmode linear
attr recordingmode vector
attr title "Clock time"
vector 1 UseCase.upf.eth[0].queue queueLength:vector ETV
attr autoWarmupFilter false
attr interpolationmode sample-hold
attr recordingmode vector
attr source "warmup(atomic(constant0(packetPushEnded) + count(packetPushStarted) - count(packetPulled) - count(packetRemoved) - count(packetDropped)))"
attr title "queue length"
attr unit pk
vector 2 UseCase.upf.eth[0].queue queueBitLength:vector ETV
attr autoWarmupFilter false
attr interpolationmode sample-hold
attr recordingmode vector
attr source "warmup(atomic(constant0(packetPushEnded) + sum(packetLength(packetPushStarted)) - sum(packetLength(packetPulled)) - sum(packetLength(packetRemoved)) - sum(packetLength(packetDropped))))"
attr title "queue bit length"
attr unit b
vector 3 UseCase.upf.eth[0].mac transmitting:vector ETV
attr interpolationmode sample-hold
attr recordingmode vector
attr source "count(transmissionStarted) - count(transmissionEnded)"
attr title "transmitting state"
attr type int
vector 4 UseCase.upf.ethIf.macLayer.queue queueLength:vector ETV
attr autoWarmupFilter false
attr interpolationmode sample-hold
attr recordingmode vector
attr source "warmup(atomic(constant0(packetPushEnded) + count(packetPushStarted) - count(packetPulled) - count(packetRemoved) - count(packetDropped)))"
attr title "queue length"
attr unit pk
vector 5 UseCase.upf.ethIf.macLayer.queue queueBitLength:vector ETV
attr autoWarmupFilter false
attr interpolationmode sample-hold
attr recordingmode vector
attr source "warmup(atomic(constant0(packetPushEnded) + sum(packetLength(packetPushStarted)) - sum(packetLength(packetPulled)) - sum(packetLength(packetRemoved)) - sum(packetLength(packetDropped))))"
attr title "queue bit length"
attr unit b
vector 6 UseCase.upf.ethIf.phyLayer.interFrameGapInserter interpacketGap:vector ETV
attr interpolationmode sample-hold
attr recordingmode vector
attr source "count(interpacketGapStarted) - count(interpacketGapEnded)"
attr title "interpacket gap state"
attr type int
vector 7 UseCase.upf.ethIf.phyLayer.transmitter transmitting:vector ETV
attr interpolationmode sample-hold
attr recordingmode vector
attr source "count(transmissionStarted) - count(transmissionEnded)"
attr title "transmitting state"
attr type int
vector 8 UseCase.upf.udp passedUpPk:vector(count) ETV
attr interpolationmode none
attr recordingmode vector(count)
attr source packetSentToUpper
attr title "packets passed up, count"
vector 9 UseCase.upf.udp droppedPkWrongPort:vector(count) ETV
attr interpolationmode none
attr recordingmode vector(count)
attr source packetDropReasonIsNoPortFound(packetDropped)
attr title "packets dropped (wrong port), count"
vector 10 UseCase.upf.udp droppedPkBadChecksum:vector(count) ETV
attr interpolationmode none
attr recordingmode vector(count)
attr source packetDropReasonIsIncorrectlyReceived(packetDropped)
attr title "packets dropped (checksum error), count"
vector 11 UseCase.gNB.pppIf.queue queueLength:vector ETV
attr autoWarmupFilter false
attr interpolationmode sample-hold
attr recordingmode vector
attr source "warmup(atomic(constant0(packetPushEnded) + count(packetPushStarted) - count(packetPulled) - count(packetRemoved) - count(packetDropped)))"
attr title "queue length"
attr unit pk
vector 12 UseCase.gNB.pppIf.queue queueBitLength:vector ETV
attr autoWarmupFilter false
attr interpolationmode sample-hold
attr recordingmode vector
attr source "warmup(atomic(constant0(packetPushEnded) + sum(packetLength(packetPushStarted)) - sum(packetLength(packetPulled)) - sum(packetLength(packetRemoved)) - sum(packetLength(packetDropped))))"
attr title "queue bit length"
attr unit b
vector 13 UseCase.gNB.pppIf.ppp transmissionState:vector ETV
attr interpolationmode sample-hold
attr recordingmode vector
attr source transmissionStateChanged
attr title "tx state"
vector 14 UseCase.gNB.pppMEHostIf.queue queueLength:vector ETV
attr autoWarmupFilter false
attr interpolationmode sample-hold
attr recordingmode vector
attr source "warmup(atomic(constant0(packetPushEnded) + count(packetPushStarted) - count(packetPulled) - count(packetRemoved) - count(packetDropped)))"
attr title "queue length"
attr unit pk
vector 15 UseCase.gNB.pppMEHostIf.queue queueBitLength:vector ETV
attr autoWarmupFilter false
attr interpolationmode sample-hold
attr recordingmode vector
attr source "warmup(atomic(constant0(packetPushEnded) + sum(packetLength(packetPushStarted)) - sum(packetLength(packetPulled)) - sum(packetLength(packetRemoved)) - sum(packetLength(packetDropped))))"
attr title "queue bit length"
attr unit b
vector 16 UseCase.gNB.pppMEHostIf.ppp transmissionState:vector ETV
attr interpolationmode sample-hold
attr recordingmode vector
attr source transmissionStateChanged
attr title "tx state"
vector 17 UseCase.gNB.udp passedUpPk:vector(count) ETV
attr interpolationmode none
attr recordingmode vector(count)
attr source packetSentToUpper
attr title "packets passed up, count"
vector 18 UseCase.gNB.udp droppedPkWrongPort:vector(count) ETV
attr interpolationmode none
attr recordingmode vector(count)
attr source packetDropReasonIsNoPortFound(packetDropped)
attr title "packets dropped (wrong port), count"
vector 19 UseCase.gNB.udp droppedPkBadChecksum:vector(count) ETV
attr interpolationmode none
attr recordingmode vector(count)
attr source packetDropReasonIsIncorrectlyReceived(packetDropped)
attr title "packets dropped (checksum error), count"
vector 20 UseCase.gNB.eth.macLayer.queue queueLength:vector ETV
attr autoWarmupFilter false
attr interpolationmode sample-hold
attr recordingmode vector
attr source "warmup(atomic(constant0(packetPushEnded) + count(packetPushStarted) - count(packetPulled) - count(packetRemoved) - count(packetDropped)))"
attr title "queue length"
attr unit pk
vector 21 UseCase.gNB.eth.macLayer.queue queueBitLength:vector ETV
attr autoWarmupFilter false
attr interpolationmode sample-hold
attr recordingmode vector
attr source "warmup(atomic(constant0(packetPushEnded) + sum(packetLength(packetPushStarted)) - sum(packetLength(packetPulled)) - sum(packetLength(packetRemoved)) - sum(packetLength(packetDropped))))"
attr title "queue bit length"
attr unit b
vector 22 UseCase.gNB.eth.phyLayer.interFrameGapInserter interpacketGap:vector ETV
attr interpolationmode sample-hold
attr recordingmode vector
attr source "count(interpacketGapStarted) - count(interpacketGapEnded)"
attr title "interpacket gap state"
attr type int
vector 23 UseCase.gNB.eth.phyLayer.transmitter transmitting:vector ETV
attr interpolationmode sample-hold
attr recordingmode vector
attr source "count(transmissionStarted) - count(transmissionEnded)"
attr title "transmitting state"
attr type int
vector 24 UseCase.ue.eth[0].queue queueLength:vector ETV
attr autoWarmupFilter false
attr interpolationmode sample-hold
attr recordingmode vector
attr source "warmup(atomic(constant0(packetPushEnded) + count(packetPushStarted) - count(packetPulled) - count(packetRemoved) - count(packetDropped)))"
attr title "queue length"
attr unit pk
vector 25 UseCase.ue.eth[0].queue queueBitLength:vector ETV
attr autoWarmupFilter false
attr interpolationmode sample-hold
attr recordingmode vector
attr source "warmup(atomic(constant0(packetPushEnded) + sum(packetLength(packetPushStarted)) - sum(packetLength(packetPulled)) - sum(packetLength(packetRemoved)) - sum(packetLength(packetDropped))))"
attr title "queue bit length"
attr unit b
vector 26 UseCase.ue.eth[0].mac transmitting:vector ETV
attr interpolationmode sample-hold
attr recordingmode vector
attr source "count(transmissionStarted) - count(transmissionEnded)"
attr title "transmitting state"
attr type int
vector 27 UseCase.ue.udp passedUpPk:vector(count) ETV
attr interpolationmode none
attr recordingmode vector(count)
attr source packetSentToUpper
attr title "packets passed up, count"
vector 28 UseCase.ue.udp droppedPkWrongPort:vector(count) ETV
attr interpolationmode none
attr recordingmode vector(count)
attr source packetDropReasonIsNoPortFound(packetDropped)
attr title "packets dropped (wrong port), count"
vector 29 UseCase.ue.udp droppedPkBadChecksum:vector(count) ETV
attr interpolationmode none
attr recordingmode vector(count)
attr source packetDropReasonIsIncorrectlyReceived(packetDropped)
attr title "packets dropped (checksum error), count"
vector 30 UseCase.DSTT.clock timeChanged:vector ETV
attr interpolationmode linear
attr recordingmode vector
attr title "Clock time"
vector 31 UseCase.DSTT.eth[0].queue queueLength:vector ETV
attr autoWarmupFilter false
attr interpolationmode sample-hold
attr recordingmode vector
attr source "warmup(atomic(constant0(packetPushEnded) + count(packetPushStarted) - count(packetPulled) - count(packetRemoved) - count(packetDropped)))"
attr title "queue length"
attr unit pk
vector 32 UseCase.DSTT.eth[0].queue queueBitLength:vector ETV
attr autoWarmupFilter false
attr interpolationmode sample-hold
attr recordingmode vector
attr source "warmup(atomic(constant0(packetPushEnded) + sum(packetLength(packetPushStarted)) - sum(packetLength(packetPulled)) - sum(packetLength(packetRemoved)) - sum(packetLength(packetDropped))))"
attr title "queue bit length"
attr unit b
vector 33 UseCase.DSTT.eth[0].mac transmitting:vector ETV
attr interpolationmode sample-hold
attr recordingmode vector
attr source "count(transmissionStarted) - count(transmissionEnded)"
attr title "transmitting state"
attr type int
vector 34 UseCase.DSTT.eth[1].queue queueLength:vector ETV
attr autoWarmupFilter false
attr interpolationmode sample-hold
attr recordingmode vector
attr source "warmup(atomic(constant0(packetPushEnded) + count(packetPushStarted) - count(packetPulled) - count(packetRemoved) - count(packetDropped)))"
attr title "queue length"
attr unit pk
vector 35 UseCase.DSTT.eth[1].queue queueBitLength:vector ETV
attr autoWarmupFilter false
attr interpolationmode sample-hold
attr recordingmode vector
attr source "warmup(atomic(constant0(packetPushEnded) + sum(packetLength(packetPushStarted)) - sum(packetLength(packetPulled)) - sum(packetLength(packetRemoved)) - sum(packetLength(packetDropped))))"
attr title "queue bit length"
attr unit b
vector 36 UseCase.DSTT.eth[1].mac transmitting:vector ETV
attr interpolationmode sample-hold
attr recordingmode vector
attr source "count(transmissionStarted) - count(transmissionEnded)"
attr title "transmitting state"
attr type int
vector 37 UseCase.DSTT.udp passedUpPk:vector(count) ETV
attr interpolationmode none
attr recordingmode vector(count)
attr source packetSentToUpper
attr title "packets passed up, count"
vector 38 UseCase.DSTT.udp droppedPkWrongPort:vector(count) ETV
attr interpolationmode none
attr recordingmode vector(count)
attr source packetDropReasonIsNoPortFound(packetDropped)
attr title "packets dropped (wrong port), count"
vector 39 UseCase.DSTT.udp droppedPkBadChecksum:vector(count) ETV
attr interpolationmode none
attr recordingmode vector(count)
attr source packetDropReasonIsIncorrectlyReceived(packetDropped)
attr title "packets dropped (checksum error), count"
vector 40 UseCase.NSTT.clock timeChanged:vector ETV
attr interpolationmode linear
attr recordingmode vector
attr title "Clock time"
vector 41 UseCase.NSTT.eth[0].queue queueLength:vector ETV
attr autoWarmupFilter false
attr interpolationmode sample-hold
attr recordingmode vector
attr source "warmup(atomic(constant0(packetPushEnded) + count(packetPushStarted) - count(packetPulled) - count(packetRemoved) - count(packetDropped)))"
attr title "queue length"
attr unit pk
vector 42 UseCase.NSTT.eth[0].queue queueBitLength:vector ETV
attr autoWarmupFilter false
attr interpolationmode sample-hold
attr recordingmode vector
attr source "warmup(atomic(constant0(packetPushEnded) + sum(packetLength(packetPushStarted)) - sum(packetLength(packetPulled)) - sum(packetLength(packetRemoved)) - sum(packetLength(packetDropped))))"
attr title "queue bit length"
attr unit b
vector 43 UseCase.NSTT.eth[0].mac transmitting:vector ETV
attr interpolationmode sample-hold
attr recordingmode vector
attr source "count(transmissionStarted) - count(transmissionEnded)"
attr title "transmitting state"
attr type int
vector 44 UseCase.NSTT.eth[1].queue queueLength:vector ETV
attr autoWarmupFilter false
attr interpolationmode sample-hold
attr recordingmode vector
attr source "warmup(atomic(constant0(packetPushEnded) + count(packetPushStarted) - count(packetPulled) - count(packetRemoved) - count(packetDropped)))"
attr title "queue length"
attr unit pk
vector 45 UseCase.NSTT.eth[1].queue queueBitLength:vector ETV
attr autoWarmupFilter false
attr interpolationmode sample-hold
attr recordingmode vector
attr source "warmup(atomic(constant0(packetPushEnded) + sum(packetLength(packetPushStarted)) - sum(packetLength(packetPulled)) - sum(packetLength(packetRemoved)) - sum(packetLength(packetDropped))))"
attr title "queue bit length"
attr unit b
vector 46 UseCase.NSTT.eth[1].mac transmitting:vector ETV
attr interpolationmode sample-hold
attr recordingmode vector
attr source "count(transmissionStarted) - count(transmissionEnded)"
attr title "transmitting state"
attr type int
vector 47 UseCase.NSTT.udp passedUpPk:vector(count) ETV
attr interpolationmode none
attr recordingmode vector(count)
attr source packetSentToUpper
attr title "packets passed up, count"
vector 48 UseCase.NSTT.udp droppedPkWrongPort:vector(count) ETV
attr interpolationmode none
attr recordingmode vector(count)
attr source packetDropReasonIsNoPortFound(packetDropped)
attr title "packets dropped (wrong port), count"
vector 49 UseCase.NSTT.udp droppedPkBadChecksum:vector(count) ETV
attr interpolationmode none
attr recordingmode vector(count)
attr source packetDropReasonIsIncorrectlyReceived(packetDropped)
attr title "packets dropped (checksum error), count"
vector 50 UseCase.Actuator.eth[0].macLayer.queue queueLength:vector ETV
attr autoWarmupFilter false
attr interpolationmode sample-hold
attr recordingmode vector
attr source "warmup(atomic(constant0(packetPushEnded) + count(packetPushStarted) - count(packetPulled) - count(packetRemoved) - count(packetDropped)))"
attr title "queue length"
attr unit pk
vector 51 UseCase.Actuator.eth[0].macLayer.queue queueBitLength:vector ETV
attr autoWarmupFilter false
attr interpolationmode sample-hold
attr recordingmode vector
attr source "warmup(atomic(constant0(packetPushEnded) + sum(packetLength(packetPushStarted)) - sum(packetLength(packetPulled)) - sum(packetLength(packetRemoved)) - sum(packetLength(packetDropped))))"
attr title "queue bit length"
attr unit b
vector 52 UseCase.Actuator.eth[0].phyLayer.interFrameGapInserter interpacketGap:vector ETV
attr interpolationmode sample-hold
attr recordingmode vector
attr source "count(interpacketGapStarted) - count(interpacketGapEnded)"
attr title "interpacket gap state"
attr type int
vector 53 UseCase.Actuator.eth[0].phyLayer.transmitter transmitting:vector ETV
attr interpolationmode sample-hold
attr recordingmode vector
attr source "count(transmissionStarted) - count(transmissionEnded)"
attr title "transmitting state"
attr type int
vector 54 UseCase.Actuator.udp passedUpPk:vector(count) ETV
attr interpolationmode none
attr recordingmode vector(count)
attr source packetSentToUpper
attr title "packets passed up, count"
vector 55 UseCase.Actuator.udp droppedPkWrongPort:vector(count) ETV
attr interpolationmode none
attr recordingmode vector(count)
attr source packetDropReasonIsNoPortFound(packetDropped)
attr title "packets dropped (wrong port), count"
vector 56 UseCase.Actuator.udp droppedPkBadChecksum:vector(count) ETV
attr interpolationmode none
attr recordingmode vector(count)
attr source packetDropReasonIsIncorrectlyReceived(packetDropped)
attr title "packets dropped (checksum error), count"
vector 57 UseCase.Actuator.gptp rateRatio:vector ETV
attr interpolationmode sample-hold
attr recordingmode vector
vector 58 UseCase.Actuator.gptp correctionField:vector ETV
attr interpolationmode linear
attr recordingmode vector
vector 59 UseCase.Actuator.gptp localTime:vector ETV
attr "" ""
attr interpolationmode linear
attr recordingmode vector
vector 60 UseCase.Actuator.gptp timeDifference:vector ETV
attr interpolationmode linear
attr recordingmode vector
vector 61 UseCase.switch5GC.gptp rateRatio:vector ETV
attr interpolationmode sample-hold
attr recordingmode vector
vector 62 UseCase.switch5GC.gptp correctionField:vector ETV
attr interpolationmode linear
attr recordingmode vector
vector 63 UseCase.switch5GC.gptp localTime:vector ETV
attr "" ""
attr interpolationmode linear
attr recordingmode vector
vector 64 UseCase.switch5GC.gptp timeDifference:vector ETV
attr interpolationmode linear
attr recordingmode vector
vector 65 UseCase.switch5GC.eth[0].macLayer.queue queueLength:vector ETV
attr autoWarmupFilter false
attr interpolationmode sample-hold
attr recordingmode vector
attr source "warmup(atomic(constant0(packetPushEnded) + count(packetPushStarted) - count(packetPulled) - count(packetRemoved) - count(packetDropped)))"
attr title "queue length"
attr unit pk
vector 66 UseCase.switch5GC.eth[0].macLayer.queue queueBitLength:vector ETV
attr autoWarmupFilter false
attr interpolationmode sample-hold
attr recordingmode vector
attr source "warmup(atomic(constant0(packetPushEnded) + sum(packetLength(packetPushStarted)) - sum(packetLength(packetPulled)) - sum(packetLength(packetRemoved)) - sum(packetLength(packetDropped))))"
attr title "queue bit length"
attr unit b
vector 67 UseCase.switch5GC.eth[0].phyLayer.interFrameGapInserter interpacketGap:vector ETV
attr interpolationmode sample-hold
attr recordingmode vector
attr source "count(interpacketGapStarted) - count(interpacketGapEnded)"
attr title "interpacket gap state"
attr type int
vector 68 UseCase.switch5GC.eth[0].phyLayer.transmitter transmitting:vector ETV
attr interpolationmode sample-hold
attr recordingmode vector
attr source "count(transmissionStarted) - count(transmissionEnded)"
attr title "transmitting state"
attr type int
vector 69 UseCase.switch5GC.eth[1].macLayer.queue queueLength:vector ETV
attr autoWarmupFilter false
attr interpolationmode sample-hold
attr recordingmode vector
attr source "warmup(atomic(constant0(packetPushEnded) + count(packetPushStarted) - count(packetPulled) - count(packetRemoved) - count(packetDropped)))"
attr title "queue length"
attr unit pk
vector 70 UseCase.switch5GC.eth[1].macLayer.queue queueBitLength:vector ETV
attr autoWarmupFilter false
attr interpolationmode sample-hold
attr recordingmode vector
attr source "warmup(atomic(constant0(packetPushEnded) + sum(packetLength(packetPushStarted)) - sum(packetLength(packetPulled)) - sum(packetLength(packetRemoved)) - sum(packetLength(packetDropped))))"
attr title "queue bit length"
attr unit b
vector 71 UseCase.switch5GC.eth[1].phyLayer.interFrameGapInserter interpacketGap:vector ETV
attr interpolationmode sample-hold
attr recordingmode vector
attr source "count(interpacketGapStarted) - count(interpacketGapEnded)"
attr title "interpacket gap state"
attr type int
vector 72 UseCase.switch5GC.eth[1].phyLayer.transmitter transmitting:vector ETV
attr interpolationmode sample-hold
attr recordingmode vector
attr source "count(transmissionStarted) - count(transmissionEnded)"
attr title "transmitting state"
attr type int
vector 73 UseCase.switchTSN.gptp rateRatio:vector ETV
attr interpolationmode sample-hold
attr recordingmode vector
vector 74 UseCase.switchTSN.gptp correctionField:vector ETV
attr interpolationmode linear
attr recordingmode vector
vector 75 UseCase.switchTSN.gptp localTime:vector ETV
attr "" ""
attr interpolationmode linear
attr recordingmode vector
vector 76 UseCase.switchTSN.gptp timeDifference:vector ETV
attr interpolationmode linear
attr recordingmode vector
vector 77 UseCase.switchTSN.eth[0].macLayer.queue queueLength:vector ETV
attr autoWarmupFilter false
attr interpolationmode sample-hold
attr recordingmode vector
attr source "warmup(atomic(constant0(packetPushEnded) + count(packetPushStarted) - count(packetPulled) - count(packetRemoved) - count(packetDropped)))"
attr title "queue length"
attr unit pk
vector 78 UseCase.switchTSN.eth[0].macLayer.queue queueBitLength:vector ETV
attr autoWarmupFilter false
attr interpolationmode sample-hold
attr recordingmode vector
attr source "warmup(atomic(constant0(packetPushEnded) + sum(packetLength(packetPushStarted)) - sum(packetLength(packetPulled)) - sum(packetLength(packetRemoved)) - sum(packetLength(packetDropped))))"
attr title "queue bit length"
attr unit b
vector 79 UseCase.switchTSN.eth[0].phyLayer.interFrameGapInserter interpacketGap:vector ETV
attr interpolationmode sample-hold
attr recordingmode vector
attr source "count(interpacketGapStarted) - count(interpacketGapEnded)"
attr title "interpacket gap state"
attr type int
vector 80 UseCase.switchTSN.eth[0].phyLayer.transmitter transmitting:vector ETV
attr interpolationmode sample-hold
attr recordingmode vector
attr source "count(transmissionStarted) - count(transmissionEnded)"
attr title "transmitting state"
attr type int
vector 81 UseCase.switchTSN.eth[1].macLayer.queue queueLength:vector ETV
attr autoWarmupFilter false
attr interpolationmode sample-hold
attr recordingmode vector
attr source "warmup(atomic(constant0(packetPushEnded) + count(packetPushStarted) - count(packetPulled) - count(packetRemoved) - count(packetDropped)))"
attr title "queue length"
attr unit pk
vector 82 UseCase.switchTSN.eth[1].macLayer.queue queueBitLength:vector ETV
attr autoWarmupFilter false
attr interpolationmode sample-hold
attr recordingmode vector
attr source "warmup(atomic(constant0(packetPushEnded) + sum(packetLength(packetPushStarted)) - sum(packetLength(packetPulled)) - sum(packetLength(packetRemoved)) - sum(packetLength(packetDropped))))"
attr title "queue bit length"
attr unit b
vector 83 UseCase.switchTSN.eth[1].phyLayer.interFrameGapInserter interpacketGap:vector ETV
attr interpolationmode sample-hold
attr recordingmode vector
attr source "count(interpacketGapStarted) - count(interpacketGapEnded)"
attr title "interpacket gap state"
attr type int
vector 84 UseCase.switchTSN.eth[1].phyLayer.transmitter transmitting:vector ETV
attr interpolationmode sample-hold
attr recordingmode vector
attr source "count(transmissionStarted) - count(transmissionEnded)"
attr title "transmitting state"
attr type int
vector 85 UseCase.switchTSN.eth[2].macLayer.queue queueLength:vector ETV
attr autoWarmupFilter false
attr interpolationmode sample-hold
attr recordingmode vector
attr source "warmup(atomic(constant0(packetPushEnded) + count(packetPushStarted) - count(packetPulled) - count(packetRemoved) - count(packetDropped)))"
attr title "queue length"
attr unit pk
vector 86 UseCase.switchTSN.eth[2].macLayer.queue queueBitLength:vector ETV
attr autoWarmupFilter false
attr interpolationmode sample-hold
attr recordingmode vector
attr source "warmup(atomic(constant0(packetPushEnded) + sum(packetLength(packetPushStarted)) - sum(packetLength(packetPulled)) - sum(packetLength(packetRemoved)) - sum(packetLength(packetDropped))))"
attr title "queue bit length"
attr unit b
vector 87 UseCase.switchTSN.eth[2].phyLayer.interFrameGapInserter interpacketGap:vector ETV
attr interpolationmode sample-hold
attr recordingmode vector
attr source "count(interpacketGapStarted) - count(interpacketGapEnded)"
attr title "interpacket gap state"
attr type int
vector 88 UseCase.switchTSN.eth[2].phyLayer.transmitter transmitting:vector ETV
attr interpolationmode sample-hold
attr recordingmode vector
attr source "count(transmissionStarted) - count(transmissionEnded)"
attr title "transmitting state"
attr type int
vector 89 UseCase.PLC.eth[0].macLayer.queue queueLength:vector ETV
attr autoWarmupFilter false
attr interpolationmode sample-hold
attr recordingmode vector
attr source "warmup(atomic(constant0(packetPushEnded) + count(packetPushStarted) - count(packetPulled) - count(packetRemoved) - count(packetDropped)))"
attr title "queue length"
attr unit pk
vector 90 UseCase.PLC.eth[0].macLayer.queue queueBitLength:vector ETV
attr autoWarmupFilter false
attr interpolationmode sample-hold
attr recordingmode vector
attr source "warmup(atomic(constant0(packetPushEnded) + sum(packetLength(packetPushStarted)) - sum(packetLength(packetPulled)) - sum(packetLength(packetRemoved)) - sum(packetLength(packetDropped))))"
attr title "queue bit length"
attr unit b
vector 91 UseCase.PLC.eth[0].phyLayer.interFrameGapInserter interpacketGap:vector ETV
attr interpolationmode sample-hold
attr recordingmode vector
attr source "count(interpacketGapStarted) - count(interpacketGapEnded)"
attr title "interpacket gap state"
attr type int
vector 92 UseCase.PLC.eth[0].phyLayer.transmitter transmitting:vector ETV
attr interpolationmode sample-hold
attr recordingmode vector
attr source "count(transmissionStarted) - count(transmissionEnded)"
attr title "transmitting state"
attr type int
vector 93 UseCase.PLC.udp passedUpPk:vector(count) ETV
attr interpolationmode none
attr recordingmode vector(count)
attr source packetSentToUpper
attr title "packets passed up, count"
vector 94 UseCase.PLC.udp droppedPkWrongPort:vector(count) ETV
attr interpolationmode none
attr recordingmode vector(count)
attr source packetDropReasonIsNoPortFound(packetDropped)
attr title "packets dropped (wrong port), count"
vector 95 UseCase.PLC.udp droppedPkBadChecksum:vector(count) ETV
attr interpolationmode none
attr recordingmode vector(count)
attr source packetDropReasonIsIncorrectlyReceived(packetDropped)
attr title "packets dropped (checksum error), count"
vector 96 UseCase.PLC.gptp rateRatio:vector ETV
attr interpolationmode sample-hold
attr recordingmode vector
vector 97 UseCase.PLC.gptp correctionField:vector ETV
attr interpolationmode linear
attr recordingmode vector
vector 98 UseCase.PLC.gptp localTime:vector ETV
attr "" ""
attr interpolationmode linear
attr recordingmode vector
vector 99 UseCase.PLC.gptp timeDifference:vector ETV
attr interpolationmode linear
attr recordingmode vector
vector 100 UseCase.Sensor.eth[0].macLayer.queue queueLength:vector ETV
attr autoWarmupFilter false
attr interpolationmode sample-hold
attr recordingmode vector
attr source "warmup(atomic(constant0(packetPushEnded) + count(packetPushStarted) - count(packetPulled) - count(packetRemoved) - count(packetDropped)))"
attr title "queue length"
attr unit pk
vector 101 UseCase.Sensor.eth[0].macLayer.queue queueBitLength:vector ETV
attr autoWarmupFilter false
attr interpolationmode sample-hold
attr recordingmode vector
attr source "warmup(atomic(constant0(packetPushEnded) + sum(packetLength(packetPushStarted)) - sum(packetLength(packetPulled)) - sum(packetLength(packetRemoved)) - sum(packetLength(packetDropped))))"
attr title "queue bit length"
attr unit b
vector 102 UseCase.Sensor.eth[0].phyLayer.interFrameGapInserter interpacketGap:vector ETV
attr interpolationmode sample-hold
attr recordingmode vector
attr source "count(interpacketGapStarted) - count(interpacketGapEnded)"
attr title "interpacket gap state"
attr type int
vector 103 UseCase.Sensor.eth[0].phyLayer.transmitter transmitting:vector ETV
attr interpolationmode sample-hold
attr recordingmode vector
attr source "count(transmissionStarted) - count(transmissionEnded)"
attr title "transmitting state"
attr type int
vector 104 UseCase.Sensor.udp passedUpPk:vector(count) ETV
attr interpolationmode none
attr recordingmode vector(count)
attr source packetSentToUpper
attr title "packets passed up, count"
vector 105 UseCase.Sensor.udp droppedPkWrongPort:vector(count) ETV
attr interpolationmode none
attr recordingmode vector(count)
attr source packetDropReasonIsNoPortFound(packetDropped)
attr title "packets dropped (wrong port), count"
vector 106 UseCase.Sensor.udp droppedPkBadChecksum:vector(count) ETV
attr interpolationmode none
attr recordingmode vector(count)
attr source packetDropReasonIsIncorrectlyReceived(packetDropped)
attr title "packets dropped (checksum error), count"
vector 107 UseCase.Sensor.gptp rateRatio:vector ETV
attr interpolationmode sample-hold
attr recordingmode vector
vector 108 UseCase.Sensor.gptp correctionField:vector ETV
attr interpolationmode linear
attr recordingmode vector
vector 109 UseCase.Sensor.gptp localTime:vector ETV
attr "" ""
attr interpolationmode linear
attr recordingmode vector
vector 110 UseCase.Sensor.gptp timeDifference:vector ETV
attr interpolationmode linear
attr recordingmode vector
vector 111 UseCase.ue.cellularNic.phy servingCell:vector ETV
attr recordingmode vector
attr source servingCell
attr title "ID of the serving eNodeB for the UE"
attr unit ""
vector 112 UseCase.ue.cellularNic.nrPhy servingCell:vector ETV
attr recordingmode vector
attr source servingCell
attr title "ID of the serving eNodeB for the UE"
attr unit ""
vector 113 UseCase.Actuator.clock timeChanged:vector ETV
attr interpolationmode linear
attr recordingmode vector
attr title "Clock time"
vector 114 UseCase.switch5GC.clock timeChanged:vector ETV
attr interpolationmode linear
attr recordingmode vector
attr title "Clock time"
vector 115 UseCase.switchTSN.clock timeChanged:vector ETV
attr interpolationmode linear
attr recordingmode vector
attr title "Clock time"
vector 116 UseCase.PLC.clock timeChanged:vector ETV
attr interpolationmode linear
attr recordingmode vector
attr title "Clock time"
vector 117 UseCase.Sensor.clock timeChanged:vector ETV
attr interpolationmode linear
attr recordingmode vector
attr title "Clock time"
vector 118 UseCase.Actuator.ethernet.macHeaderInserter incomingPacketLengths:vector ETV
attr interpolationmode none
attr recordingmode vector
attr source "packetLength(merge(packetPushedIn, packetPulledIn))"
attr title "incoming packet lengths"
attr unit b
vector 119 UseCase.Actuator.ethernet.macHeaderInserter outgoingPacketLengths:vector ETV
attr interpolationmode none
attr recordingmode vector
attr source "packetLength(merge(packetPushedOut, packetPulledOut))"
attr title "outgoing packet lengths"
attr unit b
vector 120 UseCase.Actuator.ethernet.paddingInserter incomingPacketLengths:vector ETV
attr interpolationmode none
attr recordingmode vector
attr source "packetLength(merge(packetPushedIn, packetPulledIn))"
attr title "incoming packet lengths"
attr unit b
vector 121 UseCase.Actuator.ethernet.paddingInserter outgoingPacketLengths:vector ETV
attr interpolationmode none
attr recordingmode vector
attr source "packetLength(merge(packetPushedOut, packetPulledOut))"
attr title "outgoing packet lengths"
attr unit b
vector 122 UseCase.Actuator.ethernet.fcsInserter incomingPacketLengths:vector ETV
attr interpolationmode none
attr recordingmode vector
attr source "packetLength(merge(packetPushedIn, packetPulledIn))"
attr title "incoming packet lengths"
attr unit b
vector 123 UseCase.Actuator.ethernet.fcsInserter outgoingPacketLengths:vector ETV
attr interpolationmode none
attr recordingmode vector
attr source "packetLength(merge(packetPushedOut, packetPulledOut))"
attr title "outgoing packet lengths"
attr unit b
vector 124 UseCase.Actuator.eth[0].macLayer.queue incomingPacketLengths:vector ETV
attr interpolationmode none
attr recordingmode vector
attr source packetLength(packetPushStarted)
attr title "incoming packet lengths"
attr unit b
vector 125 UseCase.switch5GC.ethernet.macHeaderInserter incomingPacketLengths:vector ETV
attr interpolationmode none
attr recordingmode vector
attr source "packetLength(merge(packetPushedIn, packetPulledIn))"
attr title "incoming packet lengths"
attr unit b
vector 126 UseCase.switch5GC.ethernet.macHeaderInserter outgoingPacketLengths:vector ETV
attr interpolationmode none
attr recordingmode vector
attr source "packetLength(merge(packetPushedOut, packetPulledOut))"
attr title "outgoing packet lengths"
attr unit b
vector 127 UseCase.switch5GC.ethernet.paddingInserter incomingPacketLengths:vector ETV
attr interpolationmode none
attr recordingmode vector
attr source "packetLength(merge(packetPushedIn, packetPulledIn))"
attr title "incoming packet lengths"
attr unit b
vector 128 UseCase.switch5GC.ethernet.paddingInserter outgoingPacketLengths:vector ETV
attr interpolationmode none
attr recordingmode vector
attr source "packetLength(merge(packetPushedOut, packetPulledOut))"
attr title "outgoing packet lengths"
attr unit b
vector 129 UseCase.switch5GC.ethernet.fcsInserter incomingPacketLengths:vector ETV
attr interpolationmode none
attr recordingmode vector
attr source "packetLength(merge(packetPushedIn, packetPulledIn))"
attr title "incoming packet lengths"
attr unit b
vector 130 UseCase.switch5GC.ethernet.fcsInserter outgoingPacketLengths:vector ETV
attr interpolationmode none
attr recordingmode vector
attr source "packetLength(merge(packetPushedOut, packetPulledOut))"
attr title "outgoing packet lengths"
attr unit b
vector 131 UseCase.switch5GC.eth[1].macLayer.queue incomingPacketLengths:vector ETV
attr interpolationmode none
attr recordingmode vector
attr source packetLength(packetPushStarted)
attr title "incoming packet lengths"
attr unit b
vector 132 UseCase.PLC.ethernet.macHeaderInserter incomingPacketLengths:vector ETV
attr interpolationmode none
attr recordingmode vector
attr source "packetLength(merge(packetPushedIn, packetPulledIn))"
attr title "incoming packet lengths"
attr unit b
vector 133 UseCase.PLC.ethernet.macHeaderInserter outgoingPacketLengths:vector ETV
attr interpolationmode none
attr recordingmode vector
attr source "packetLength(merge(packetPushedOut, packetPulledOut))"
attr title "outgoing packet lengths"
attr unit b
vector 134 UseCase.PLC.ethernet.paddingInserter incomingPacketLengths:vector ETV
attr interpolationmode none
attr recordingmode vector
attr source "packetLength(merge(packetPushedIn, packetPulledIn))"
attr title "incoming packet lengths"
attr unit b
vector 135 UseCase.PLC.ethernet.paddingInserter outgoingPacketLengths:vector ETV
attr interpolationmode none
attr recordingmode vector
attr source "packetLength(merge(packetPushedOut, packetPulledOut))"
attr title "outgoing packet lengths"
attr unit b
vector 136 UseCase.PLC.ethernet.fcsInserter incomingPacketLengths:vector ETV
attr interpolationmode none
attr recordingmode vector
attr source "packetLength(merge(packetPushedIn, packetPulledIn))"
attr title "incoming packet lengths"
attr unit b
vector 137 UseCase.PLC.ethernet.fcsInserter outgoingPacketLengths:vector ETV
attr interpolationmode none
attr recordingmode vector
attr source "packetLength(merge(packetPushedOut, packetPulledOut))"
attr title "outgoing packet lengths"
attr unit b
vector 138 UseCase.PLC.eth[0].macLayer.queue incomingPacketLengths:vector ETV
attr interpolationmode none
attr recordingmode vector
attr source packetLength(packetPushStarted)
attr title "incoming packet lengths"
attr unit b
vector 139 UseCase.Sensor.ethernet.macHeaderInserter incomingPacketLengths:vector ETV
attr interpolationmode none
attr recordingmode vector
attr source "packetLength(merge(packetPushedIn, packetPulledIn))"
attr title "incoming packet lengths"
attr unit b
vector 140 UseCase.Sensor.ethernet.macHeaderInserter outgoingPacketLengths:vector ETV
attr interpolationmode none
attr recordingmode vector
attr source "packetLength(merge(packetPushedOut, packetPulledOut))"
attr title "outgoing packet lengths"
attr unit b
vector 141 UseCase.Sensor.ethernet.paddingInserter incomingPacketLengths:vector ETV
attr interpolationmode none
attr recordingmode vector
attr source "packetLength(merge(packetPushedIn, packetPulledIn))"
attr title "incoming packet lengths"
attr unit b
vector 142 UseCase.Sensor.ethernet.paddingInserter outgoingPacketLengths:vector ETV
attr interpolationmode none
attr recordingmode vector
attr source "packetLength(merge(packetPushedOut, packetPulledOut))"
attr title "outgoing packet lengths"
attr unit b
vector 143 UseCase.Sensor.ethernet.fcsInserter incomingPacketLengths:vector ETV
attr interpolationmode none
attr recordingmode vector
attr source "packetLength(merge(packetPushedIn, packetPulledIn))"
attr title "incoming packet lengths"
attr unit b
vector 144 UseCase.Sensor.ethernet.fcsInserter outgoingPacketLengths:vector ETV
attr interpolationmode none
attr recordingmode vector
attr source "packetLength(merge(packetPushedOut, packetPulledOut))"
attr title "outgoing packet lengths"
attr unit b
vector 145 UseCase.Sensor.eth[0].macLayer.queue incomingPacketLengths:vector ETV
attr interpolationmode none
attr recordingmode vector
attr source packetLength(packetPushStarted)
attr title "incoming packet lengths"
attr unit b
vector 146 UseCase.Actuator.eth[0].macLayer.queue queueingTime:vector ETV
attr interpolationmode none
attr recordingmode vector
attr source queueingTime(packetPulled)
attr title "queueing times"
attr unit s
vector 147 UseCase.Actuator.eth[0].macLayer.queue outgoingPacketLengths:vector ETV
attr interpolationmode none
attr recordingmode vector
attr source packetLength(packetPulled)
attr title "outgoing packet lengths"
attr unit b
vector 148 UseCase.Actuator.eth[0].macLayer.server incomingPacketLengths:vector ETV
attr interpolationmode none
attr recordingmode vector
attr source packetLength(packetPulled)
attr title "incoming packet lengths"
attr unit b
vector 149 UseCase.Actuator.eth[0].macLayer.server outgoingPacketLengths:vector ETV
attr interpolationmode none
attr recordingmode vector
attr source packetLength(packetPushed)
attr title "outgoing packet lengths"
attr unit b
vector 150 UseCase.Actuator.eth[0].macLayer.outboundEmitter incomingPacketLengths:vector ETV
attr interpolationmode none
attr recordingmode vector
attr source "packetLength(merge(packetPushedIn, packetPulledIn))"
attr title "incoming packet lengths"
attr unit b
vector 151 UseCase.Actuator.eth[0].macLayer.outboundEmitter outgoingPacketLengths:vector ETV
attr interpolationmode none
attr recordingmode vector
attr source "packetLength(merge(packetPushedOut, packetPulledOut))"
attr title "outgoing packet lengths"
attr unit b
vector 152 UseCase.Actuator.eth[0].phyLayer.phyHeaderInserter incomingPacketLengths:vector ETV
attr interpolationmode none
attr recordingmode vector
attr source "packetLength(merge(packetPushedIn, packetPulledIn))"
attr title "incoming packet lengths"
attr unit b
vector 153 UseCase.Actuator.eth[0].phyLayer.phyHeaderInserter outgoingPacketLengths:vector ETV
attr interpolationmode none
attr recordingmode vector
attr source "packetLength(merge(packetPushedOut, packetPulledOut))"
attr title "outgoing packet lengths"
attr unit b
vector 154 UseCase.Actuator.eth[0].phyLayer.outboundEmitter incomingPacketLengths:vector ETV
attr interpolationmode none
attr recordingmode vector
attr source "packetLength(merge(packetPushedIn, packetPulledIn))"
attr title "incoming packet lengths"
attr unit b
vector 155 UseCase.Actuator.eth[0].phyLayer.outboundEmitter outgoingPacketLengths:vector ETV
attr interpolationmode none
attr recordingmode vector
attr source "packetLength(merge(packetPushedOut, packetPulledOut))"
attr title "outgoing packet lengths"
attr unit b
vector 156 UseCase.switch5GC.eth[1].macLayer.queue queueingTime:vector ETV
attr interpolationmode none
attr recordingmode vector
attr source queueingTime(packetPulled)
attr title "queueing times"
attr unit s
vector 157 UseCase.switch5GC.eth[1].macLayer.queue outgoingPacketLengths:vector ETV
attr interpolationmode none
attr recordingmode vector
attr source packetLength(packetPulled)
attr title "outgoing packet lengths"
attr unit b
vector 158 UseCase.switch5GC.eth[1].macLayer.server incomingPacketLengths:vector ETV
attr interpolationmode none
attr recordingmode vector
attr source packetLength(packetPulled)
attr title "incoming packet lengths"
attr unit b
vector 159 UseCase.switch5GC.eth[1].macLayer.server outgoingPacketLengths:vector ETV
attr interpolationmode none
attr recordingmode vector
attr source packetLength(packetPushed)
attr title "outgoing packet lengths"
attr unit b
vector 160 UseCase.switch5GC.eth[1].macLayer.outboundEmitter incomingPacketLengths:vector ETV
attr interpolationmode none
attr recordingmode vector
attr source "packetLength(merge(packetPushedIn, packetPulledIn))"
attr title "incoming packet lengths"
attr unit b
vector 161 UseCase.switch5GC.eth[1].macLayer.outboundEmitter outgoingPacketLengths:vector ETV
attr interpolationmode none
attr recordingmode vector
attr source "packetLength(merge(packetPushedOut, packetPulledOut))"
attr title "outgoing packet lengths"
attr unit b
vector 162 UseCase.switch5GC.eth[1].phyLayer.phyHeaderInserter incomingPacketLengths:vector ETV
attr interpolationmode none
attr recordingmode vector
attr source "packetLength(merge(packetPushedIn, packetPulledIn))"
attr title "incoming packet lengths"
attr unit b
vector 163 UseCase.switch5GC.eth[1].phyLayer.phyHeaderInserter outgoingPacketLengths:vector ETV
attr interpolationmode none
attr recordingmode vector
attr source "packetLength(merge(packetPushedOut, packetPulledOut))"
attr title "outgoing packet lengths"
attr unit b
vector 164 UseCase.switch5GC.eth[1].phyLayer.outboundEmitter incomingPacketLengths:vector ETV
attr interpolationmode none
attr recordingmode vector
attr source "packetLength(merge(packetPushedIn, packetPulledIn))"
attr title "incoming packet lengths"
attr unit b
vector 165 UseCase.switch5GC.eth[1].phyLayer.outboundEmitter outgoingPacketLengths:vector ETV
attr interpolationmode none
attr recordingmode vector
attr source "packetLength(merge(packetPushedOut, packetPulledOut))"
attr title "outgoing packet lengths"
attr unit b
vector 166 UseCase.PLC.eth[0].macLayer.queue queueingTime:vector ETV
attr interpolationmode none
attr recordingmode vector
attr source queueingTime(packetPulled)
attr title "queueing times"
attr unit s
vector 167 UseCase.PLC.eth[0].macLayer.queue outgoingPacketLengths:vector ETV
attr interpolationmode none
attr recordingmode vector
attr source packetLength(packetPulled)
attr title "outgoing packet lengths"
attr unit b
vector 168 UseCase.PLC.eth[0].macLayer.server incomingPacketLengths:vector ETV
attr interpolationmode none
attr recordingmode vector
attr source packetLength(packetPulled)
attr title "incoming packet lengths"
attr unit b
vector 169 UseCase.PLC.eth[0].macLayer.server outgoingPacketLengths:vector ETV
attr interpolationmode none
attr recordingmode vector
attr source packetLength(packetPushed)
attr title "outgoing packet lengths"
attr unit b
vector 170 UseCase.PLC.eth[0].macLayer.outboundEmitter incomingPacketLengths:vector ETV
attr interpolationmode none
attr recordingmode vector
attr source "packetLength(merge(packetPushedIn, packetPulledIn))"
attr title "incoming packet lengths"
attr unit b
vector 171 UseCase.PLC.eth[0].macLayer.outboundEmitter outgoingPacketLengths:vector ETV
attr interpolationmode none
attr recordingmode vector
attr source "packetLength(merge(packetPushedOut, packetPulledOut))"
attr title "outgoing packet lengths"
attr unit b
vector 172 UseCase.PLC.eth[0].phyLayer.phyHeaderInserter incomingPacketLengths:vector ETV
attr interpolationmode none
attr recordingmode vector
attr source "packetLength(merge(packetPushedIn, packetPulledIn))"
attr title "incoming packet lengths"
attr unit b
vector 173 UseCase.PLC.eth[0].phyLayer.phyHeaderInserter outgoingPacketLengths:vector ETV
attr interpolationmode none
attr recordingmode vector
attr source "packetLength(merge(packetPushedOut, packetPulledOut))"
attr title "outgoing packet lengths"
attr unit b
vector 174 UseCase.PLC.eth[0].phyLayer.outboundEmitter incomingPacketLengths:vector ETV
attr interpolationmode none
attr recordingmode vector
attr source "packetLength(merge(packetPushedIn, packetPulledIn))"
attr title "incoming packet lengths"
attr unit b
vector 175 UseCase.PLC.eth[0].phyLayer.outboundEmitter outgoingPacketLengths:vector ETV
attr interpolationmode none
attr recordingmode vector
attr source "packetLength(merge(packetPushedOut, packetPulledOut))"
attr title "outgoing packet lengths"
attr unit b
vector 176 UseCase.Sensor.eth[0].macLayer.queue queueingTime:vector ETV
attr interpolationmode none
attr recordingmode vector
attr source queueingTime(packetPulled)
attr title "queueing times"
attr unit s
vector 177 UseCase.Sensor.eth[0].macLayer.queue outgoingPacketLengths:vector ETV
attr interpolationmode none
attr recordingmode vector
attr source packetLength(packetPulled)
attr title "outgoing packet lengths"
attr unit b
vector 178 UseCase.Sensor.eth[0].macLayer.server incomingPacketLengths:vector ETV
attr interpolationmode none
attr recordingmode vector
attr source packetLength(packetPulled)
attr title "incoming packet lengths"
attr unit b
vector 179 UseCase.Sensor.eth[0].macLayer.server outgoingPacketLengths:vector ETV
attr interpolationmode none
attr recordingmode vector
attr source packetLength(packetPushed)
attr title "outgoing packet lengths"
attr unit b
vector 180 UseCase.Sensor.eth[0].macLayer.outboundEmitter incomingPacketLengths:vector ETV
attr interpolationmode none
attr recordingmode vector
attr source "packetLength(merge(packetPushedIn, packetPulledIn))"
attr title "incoming packet lengths"
attr unit b
vector 181 UseCase.Sensor.eth[0].macLayer.outboundEmitter outgoingPacketLengths:vector ETV
attr interpolationmode none
attr recordingmode vector
attr source "packetLength(merge(packetPushedOut, packetPulledOut))"
attr title "outgoing packet lengths"
attr unit b
vector 182 UseCase.Sensor.eth[0].phyLayer.phyHeaderInserter incomingPacketLengths:vector ETV
attr interpolationmode none
attr recordingmode vector
attr source "packetLength(merge(packetPushedIn, packetPulledIn))"
attr title "incoming packet lengths"
attr unit b
vector 183 UseCase.Sensor.eth[0].phyLayer.phyHeaderInserter outgoingPacketLengths:vector ETV
attr interpolationmode none
attr recordingmode vector
attr source "packetLength(merge(packetPushedOut, packetPulledOut))"
attr title "outgoing packet lengths"
attr unit b
vector 184 UseCase.Sensor.eth[0].phyLayer.outboundEmitter incomingPacketLengths:vector ETV
attr interpolationmode none
attr recordingmode vector
attr source "packetLength(merge(packetPushedIn, packetPulledIn))"
attr title "incoming packet lengths"
attr unit b
vector 185 UseCase.Sensor.eth[0].phyLayer.outboundEmitter outgoingPacketLengths:vector ETV
attr interpolationmode none
attr recordingmode vector
attr source "packetLength(merge(packetPushedOut, packetPulledOut))"
attr title "outgoing packet lengths"
attr unit b
vector 186 UseCase.Actuator.eth[0].phyLayer.transmitter transmissionTime:vector ETV
attr interpolationmode none
attr recordingmode vector
attr source packetDuration(transmissionEnded)
attr title "transmission time"
attr unit s
vector 187 UseCase.switch5GC.eth[1].phyLayer.transmitter transmissionTime:vector ETV
attr interpolationmode none
attr recordingmode vector
attr source packetDuration(transmissionEnded)
attr title "transmission time"
attr unit s
vector 188 UseCase.PLC.eth[0].phyLayer.transmitter transmissionTime:vector ETV
attr interpolationmode none
attr recordingmode vector
attr source packetDuration(transmissionEnded)
attr title "transmission time"
attr unit s
vector 189 UseCase.Sensor.eth[0].phyLayer.transmitter transmissionTime:vector ETV
attr interpolationmode none
attr recordingmode vector
attr source packetDuration(transmissionEnded)
attr title "transmission time"
attr unit s
vector 190 UseCase.switchTSN.eth[2].phyLayer.receiver receptionTime:vector ETV
attr interpolationmode none
attr recordingmode vector
attr source packetDuration(receptionEnded)
attr title "reception time"
attr unit s
vector 191 UseCase.switchTSN.eth[2].phyLayer.inboundEmitter incomingPacketLengths:vector ETV
attr interpolationmode none
attr recordingmode vector
attr source "packetLength(merge(packetPushedIn, packetPulledIn))"
attr title "incoming packet lengths"
attr unit b
vector 192 UseCase.switchTSN.eth[2].phyLayer.inboundEmitter outgoingPacketLengths:vector ETV
attr interpolationmode none
attr recordingmode vector
attr source "packetLength(merge(packetPushedOut, packetPulledOut))"
attr title "outgoing packet lengths"
attr unit b
vector 193 UseCase.switchTSN.eth[2].phyLayer.phyHeaderChecker incomingPacketLengths:vector ETV
attr interpolationmode none
attr recordingmode vector
attr source "packetLength(merge(packetPushedIn, packetPulledIn))"
attr title "incoming packet lengths"
attr unit b
vector 194 UseCase.switchTSN.eth[2].phyLayer.phyHeaderChecker outgoingPacketLengths:vector ETV
attr interpolationmode none
attr recordingmode vector
attr source "packetLength(merge(packetPushedOut, packetPulledOut))"
attr title "outgoing packet lengths"
attr unit b
vector 195 UseCase.switchTSN.eth[2].macLayer.inboundEmitter incomingPacketLengths:vector ETV
attr interpolationmode none
attr recordingmode vector
attr source "packetLength(merge(packetPushedIn, packetPulledIn))"
attr title "incoming packet lengths"
attr unit b
vector 196 UseCase.switchTSN.eth[2].macLayer.inboundEmitter outgoingPacketLengths:vector ETV
attr interpolationmode none
attr recordingmode vector
attr source "packetLength(merge(packetPushedOut, packetPulledOut))"
attr title "outgoing packet lengths"
attr unit b
vector 197 UseCase.switchTSN.eth[2].macLayer.fcsChecker incomingPacketLengths:vector ETV
attr interpolationmode none
attr recordingmode vector
attr source "packetLength(merge(packetPushedIn, packetPulledIn))"
attr title "incoming packet lengths"
attr unit b
vector 198 UseCase.switchTSN.eth[2].macLayer.fcsChecker outgoingPacketLengths:vector ETV
attr interpolationmode none
attr recordingmode vector
attr source "packetLength(merge(packetPushedOut, packetPulledOut))"
attr title "outgoing packet lengths"
attr unit b
vector 199 UseCase.switchTSN.ethernet.fcsChecker incomingPacketLengths:vector ETV
attr interpolationmode none
attr recordingmode vector
attr source "packetLength(merge(packetPushedIn, packetPulledIn))"
attr title "incoming packet lengths"
attr unit b
vector 200 UseCase.switchTSN.ethernet.fcsChecker outgoingPacketLengths:vector ETV
attr interpolationmode none
attr recordingmode vector
attr source "packetLength(merge(packetPushedOut, packetPulledOut))"
attr title "outgoing packet lengths"
attr unit b
vector 201 UseCase.switchTSN.ethernet.macHeaderChecker incomingPacketLengths:vector ETV
attr interpolationmode none
attr recordingmode vector
attr source "packetLength(merge(packetPushedIn, packetPulledIn))"
attr title "incoming packet lengths"
attr unit b
vector 202 UseCase.switchTSN.ethernet.macHeaderChecker outgoingPacketLengths:vector ETV
attr interpolationmode none
attr recordingmode vector
attr source "packetLength(merge(packetPushedOut, packetPulledOut))"
attr title "outgoing packet lengths"
attr unit b
vector 203 UseCase.switchTSN.bridging.interfaceRelay.learner incomingPacketLengths:vector ETV
attr interpolationmode none
attr recordingmode vector
attr source "packetLength(merge(packetPushedIn, packetPulledIn))"
attr title "incoming packet lengths"
attr unit b
vector 204 UseCase.switchTSN.bridging.interfaceRelay.learner outgoingPacketLengths:vector ETV
attr interpolationmode none
attr recordingmode vector
attr source "packetLength(merge(packetPushedOut, packetPulledOut))"
attr title "outgoing packet lengths"
attr unit b
vector 205 UseCase.NSTT.eth[1].mac rxPkOk:vector(packetBytes) ETV
attr interpolationmode none
attr recordingmode vector(packetBytes)
attr source rxPkOk
attr title "packets received OK, packetBytes"
vector 206 UseCase.NSTT.eth[1].mac passedUpPk:vector(packetBytes) ETV
attr interpolationmode none
attr recordingmode vector(packetBytes)
attr source packetSentToUpper
attr title "packets passed to higher layer, packetBytes"
vector 207 UseCase.switch5GC.eth[0].phyLayer.receiver receptionTime:vector ETV
attr interpolationmode none
attr recordingmode vector
attr source packetDuration(receptionEnded)
attr title "reception time"
attr unit s
vector 208 UseCase.switch5GC.eth[0].phyLayer.inboundEmitter incomingPacketLengths:vector ETV
attr interpolationmode none
attr recordingmode vector
attr source "packetLength(merge(packetPushedIn, packetPulledIn))"
attr title "incoming packet lengths"
attr unit b
vector 209 UseCase.switch5GC.eth[0].phyLayer.inboundEmitter outgoingPacketLengths:vector ETV
attr interpolationmode none
attr recordingmode vector
attr source "packetLength(merge(packetPushedOut, packetPulledOut))"
attr title "outgoing packet lengths"
attr unit b
vector 210 UseCase.switch5GC.eth[0].phyLayer.phyHeaderChecker incomingPacketLengths:vector ETV
attr interpolationmode none
attr recordingmode vector
attr source "packetLength(merge(packetPushedIn, packetPulledIn))"
attr title "incoming packet lengths"
attr unit b
vector 211 UseCase.switch5GC.eth[0].phyLayer.phyHeaderChecker outgoingPacketLengths:vector ETV
attr interpolationmode none
attr recordingmode vector
attr source "packetLength(merge(packetPushedOut, packetPulledOut))"
attr title "outgoing packet lengths"
attr unit b
vector 212 UseCase.switch5GC.eth[0].macLayer.inboundEmitter incomingPacketLengths:vector ETV
attr interpolationmode none
attr recordingmode vector
attr source "packetLength(merge(packetPushedIn, packetPulledIn))"
attr title "incoming packet lengths"
attr unit b
vector 213 UseCase.switch5GC.eth[0].macLayer.inboundEmitter outgoingPacketLengths:vector ETV
attr interpolationmode none
attr recordingmode vector
attr source "packetLength(merge(packetPushedOut, packetPulledOut))"
attr title "outgoing packet lengths"
attr unit b
vector 214 UseCase.switch5GC.eth[0].macLayer.fcsChecker incomingPacketLengths:vector ETV
attr interpolationmode none
attr recordingmode vector
attr source "packetLength(merge(packetPushedIn, packetPulledIn))"
attr title "incoming packet lengths"
attr unit b
vector 215 UseCase.switch5GC.eth[0].macLayer.fcsChecker outgoingPacketLengths:vector ETV
attr interpolationmode none
attr recordingmode vector
attr source "packetLength(merge(packetPushedOut, packetPulledOut))"
attr title "outgoing packet lengths"
attr unit b
vector 216 UseCase.switch5GC.ethernet.fcsChecker incomingPacketLengths:vector ETV
attr interpolationmode none
attr recordingmode vector
attr source "packetLength(merge(packetPushedIn, packetPulledIn))"
attr title "incoming packet lengths"
attr unit b
vector 217 UseCase.switch5GC.ethernet.fcsChecker outgoingPacketLengths:vector ETV
attr interpolationmode none
attr recordingmode vector
attr source "packetLength(merge(packetPushedOut, packetPulledOut))"
attr title "outgoing packet lengths"
attr unit b
vector 218 UseCase.switch5GC.ethernet.macHeaderChecker incomingPacketLengths:vector ETV
attr interpolationmode none
attr recordingmode vector
attr source "packetLength(merge(packetPushedIn, packetPulledIn))"
attr title "incoming packet lengths"
attr unit b
vector 219 UseCase.switch5GC.ethernet.macHeaderChecker outgoingPacketLengths:vector ETV
attr interpolationmode none
attr recordingmode vector
attr source "packetLength(merge(packetPushedOut, packetPulledOut))"
attr title "outgoing packet lengths"
attr unit b
vector 220 UseCase.switch5GC.bridging.interfaceRelay.learner incomingPacketLengths:vector ETV
attr interpolationmode none
attr recordingmode vector
attr source "packetLength(merge(packetPushedIn, packetPulledIn))"
attr title "incoming packet lengths"
attr unit b
vector 221 UseCase.switch5GC.bridging.interfaceRelay.learner outgoingPacketLengths:vector ETV
attr interpolationmode none
attr recordingmode vector
attr source "packetLength(merge(packetPushedOut, packetPulledOut))"
attr title "outgoing packet lengths"
attr unit b
vector 222 UseCase.switchTSN.eth[1].phyLayer.receiver receptionTime:vector ETV
attr interpolationmode none
attr recordingmode vector
attr source packetDuration(receptionEnded)
attr title "reception time"
attr unit s
vector 223 UseCase.switchTSN.eth[1].phyLayer.inboundEmitter incomingPacketLengths:vector ETV
attr interpolationmode none
attr recordingmode vector
attr source "packetLength(merge(packetPushedIn, packetPulledIn))"
attr title "incoming packet lengths"
attr unit b
vector 224 UseCase.switchTSN.eth[1].phyLayer.inboundEmitter outgoingPacketLengths:vector ETV
attr interpolationmode none
attr recordingmode vector
attr source "packetLength(merge(packetPushedOut, packetPulledOut))"
attr title "outgoing packet lengths"
attr unit b
vector 225 UseCase.switchTSN.eth[1].phyLayer.phyHeaderChecker incomingPacketLengths:vector ETV
attr interpolationmode none
attr recordingmode vector
attr source "packetLength(merge(packetPushedIn, packetPulledIn))"
attr title "incoming packet lengths"
attr unit b
vector 226 UseCase.switchTSN.eth[1].phyLayer.phyHeaderChecker outgoingPacketLengths:vector ETV
attr interpolationmode none
attr recordingmode vector
attr source "packetLength(merge(packetPushedOut, packetPulledOut))"
attr title "outgoing packet lengths"
attr unit b
vector 227 UseCase.switchTSN.eth[1].macLayer.inboundEmitter incomingPacketLengths:vector ETV
attr interpolationmode none
attr recordingmode vector
attr source "packetLength(merge(packetPushedIn, packetPulledIn))"
attr title "incoming packet lengths"
attr unit b
vector 228 UseCase.switchTSN.eth[1].macLayer.inboundEmitter outgoingPacketLengths:vector ETV
attr interpolationmode none
attr recordingmode vector
attr source "packetLength(merge(packetPushedOut, packetPulledOut))"
attr title "outgoing packet lengths"
attr unit b
vector 229 UseCase.switchTSN.eth[1].macLayer.fcsChecker incomingPacketLengths:vector ETV
attr interpolationmode none
attr recordingmode vector
attr source "packetLength(merge(packetPushedIn, packetPulledIn))"
attr title "incoming packet lengths"
attr unit b
vector 230 UseCase.switchTSN.eth[1].macLayer.fcsChecker outgoingPacketLengths:vector ETV
attr interpolationmode none
attr recordingmode vector
attr source "packetLength(merge(packetPushedOut, packetPulledOut))"
attr title "outgoing packet lengths"
attr unit b
vector 231 UseCase.NSTT.ethernet decapPk:vector(packetBytes) ETV
attr interpolationmode none
attr recordingmode vector(packetBytes)
attr source decapPk
attr title "packets decapsulated, packetBytes"
vector 232 UseCase.NSTT.udp packetSent:vector(packetBytes) ETV
attr interpolationmode none
attr recordingmode vector(packetBytes)
attr source packetSent
attr title "packets sent, packetBytes"
vector 233 UseCase.NSTT.ethernet encapPk:vector(packetBytes) ETV
attr interpolationmode none
attr recordingmode vector(packetBytes)
attr source encapPk
attr title "packets encapsulated, packetBytes"
vector 234 UseCase.NSTT.eth[0].queue incomingPacketLengths:vector ETV
attr interpolationmode none
attr recordingmode vector
attr source packetLength(packetPushStarted)
attr title "incoming packet lengths"
attr unit b
vector 235 UseCase.NSTT.eth[0].queue queueingTime:vector ETV
attr interpolationmode none
attr recordingmode vector
attr source queueingTime(packetPulled)
attr title "queueing times"
attr unit s
vector 236 UseCase.NSTT.eth[0].queue outgoingPacketLengths:vector ETV
attr interpolationmode none
attr recordingmode vector
attr source packetLength(packetPulled)
attr title "outgoing packet lengths"
attr unit b
vector 237 UseCase.NSTT.eth[0].mac packetReceivedFromUpper:vector(packetBytes) ETV
attr interpolationmode none
attr recordingmode vector(packetBytes)
attr source packetReceivedFromUpper
attr title "packet bytes from higher layer, packetBytes"
vector 238 UseCase.NSTT.eth[0].mac txPk:vector(packetBytes) ETV
attr interpolationmode none
attr recordingmode vector(packetBytes)
attr source packetSentToLower
attr title "packets transmitted, packetBytes"
vector 239 UseCase.upf.ethIf.phyLayer.receiver receptionTime:vector ETV
attr interpolationmode none
attr recordingmode vector
attr source packetDuration(receptionEnded)
attr title "reception time"
attr unit s
vector 240 UseCase.upf.ethIf.phyLayer.inboundEmitter incomingPacketLengths:vector ETV
attr interpolationmode none
attr recordingmode vector
attr source "packetLength(merge(packetPushedIn, packetPulledIn))"
attr title "incoming packet lengths"
attr unit b
vector 241 UseCase.upf.ethIf.phyLayer.inboundEmitter outgoingPacketLengths:vector ETV
attr interpolationmode none
attr recordingmode vector
attr source "packetLength(merge(packetPushedOut, packetPulledOut))"
attr title "outgoing packet lengths"
attr unit b
vector 242 UseCase.upf.ethIf.phyLayer.phyHeaderChecker incomingPacketLengths:vector ETV
attr interpolationmode none
attr recordingmode vector
attr source "packetLength(merge(packetPushedIn, packetPulledIn))"
attr title "incoming packet lengths"
attr unit b
vector 243 UseCase.upf.ethIf.phyLayer.phyHeaderChecker outgoingPacketLengths:vector ETV
attr interpolationmode none
attr recordingmode vector
attr source "packetLength(merge(packetPushedOut, packetPulledOut))"
attr title "outgoing packet lengths"
attr unit b
vector 244 UseCase.upf.ethIf.macLayer.inboundEmitter incomingPacketLengths:vector ETV
attr interpolationmode none
attr recordingmode vector
attr source "packetLength(merge(packetPushedIn, packetPulledIn))"
attr title "incoming packet lengths"
attr unit b
vector 245 UseCase.upf.ethIf.macLayer.inboundEmitter outgoingPacketLengths:vector ETV
attr interpolationmode none
attr recordingmode vector
attr source "packetLength(merge(packetPushedOut, packetPulledOut))"
attr title "outgoing packet lengths"
attr unit b
vector 246 UseCase.upf.ethIf.macLayer.fcsChecker incomingPacketLengths:vector ETV
attr interpolationmode none
attr recordingmode vector
attr source "packetLength(merge(packetPushedIn, packetPulledIn))"
attr title "incoming packet lengths"
attr unit b
vector 247 UseCase.upf.ethIf.macLayer.fcsChecker outgoingPacketLengths:vector ETV
attr interpolationmode none
attr recordingmode vector
attr source "packetLength(merge(packetPushedOut, packetPulledOut))"
attr title "outgoing packet lengths"
attr unit b
vector 248 UseCase.upf.encapIf.fcsChecker incomingPacketLengths:vector ETV
attr interpolationmode none
attr recordingmode vector
attr source "packetLength(merge(packetPushedIn, packetPulledIn))"
attr title "incoming packet lengths"
attr unit b
vector 249 UseCase.upf.encapIf.fcsChecker outgoingPacketLengths:vector ETV
attr interpolationmode none
attr recordingmode vector
attr source "packetLength(merge(packetPushedOut, packetPulledOut))"
attr title "outgoing packet lengths"
attr unit b
vector 250 UseCase.upf.encapIf.macHeaderChecker incomingPacketLengths:vector ETV
attr interpolationmode none
attr recordingmode vector
attr source "packetLength(merge(packetPushedIn, packetPulledIn))"
attr title "incoming packet lengths"
attr unit b
vector 251 UseCase.upf.encapIf.macHeaderChecker outgoingPacketLengths:vector ETV
attr interpolationmode none
attr recordingmode vector
attr source "packetLength(merge(packetPushedOut, packetPulledOut))"
attr title "outgoing packet lengths"
attr unit b
vector 252 UseCase.upf.udp packetSent:vector(packetBytes) ETV
attr interpolationmode none
attr recordingmode vector(packetBytes)
attr source packetSent
attr title "packets sent, packetBytes"
vector 253 UseCase.upf.ethernet encapPk:vector(packetBytes) ETV
attr interpolationmode none
attr recordingmode vector(packetBytes)
attr source encapPk
attr title "packets encapsulated, packetBytes"
vector 254 UseCase.upf.eth[0].queue incomingPacketLengths:vector ETV
attr interpolationmode none
attr recordingmode vector
attr source packetLength(packetPushStarted)
attr title "incoming packet lengths"
attr unit b
vector 255 UseCase.upf.eth[0].queue queueingTime:vector ETV
attr interpolationmode none
attr recordingmode vector
attr source queueingTime(packetPulled)
attr title "queueing times"
attr unit s
vector 256 UseCase.upf.eth[0].queue outgoingPacketLengths:vector ETV
attr interpolationmode none
attr recordingmode vector
attr source packetLength(packetPulled)
attr title "outgoing packet lengths"
attr unit b
vector 257 UseCase.upf.eth[0].mac packetReceivedFromUpper:vector(packetBytes) ETV
attr interpolationmode none
attr recordingmode vector(packetBytes)
attr source packetReceivedFromUpper
attr title "packet bytes from higher layer, packetBytes"
vector 258 UseCase.upf.eth[0].mac txPk:vector(packetBytes) ETV
attr interpolationmode none
attr recordingmode vector(packetBytes)
attr source packetSentToLower
attr title "packets transmitted, packetBytes"
vector 259 UseCase.gNB.eth.phyLayer.receiver receptionTime:vector ETV
attr interpolationmode none
attr recordingmode vector
attr source packetDuration(receptionEnded)
attr title "reception time"
attr unit s
vector 260 UseCase.gNB.eth.phyLayer.inboundEmitter incomingPacketLengths:vector ETV
attr interpolationmode none
attr recordingmode vector
attr source "packetLength(merge(packetPushedIn, packetPulledIn))"
attr title "incoming packet lengths"
attr unit b
vector 261 UseCase.gNB.eth.phyLayer.inboundEmitter outgoingPacketLengths:vector ETV
attr interpolationmode none
attr recordingmode vector
attr source "packetLength(merge(packetPushedOut, packetPulledOut))"
attr title "outgoing packet lengths"
attr unit b
vector 262 UseCase.gNB.eth.phyLayer.phyHeaderChecker incomingPacketLengths:vector ETV
attr interpolationmode none
attr recordingmode vector
attr source "packetLength(merge(packetPushedIn, packetPulledIn))"
attr title "incoming packet lengths"
attr unit b
vector 263 UseCase.gNB.eth.phyLayer.phyHeaderChecker outgoingPacketLengths:vector ETV
attr interpolationmode none
attr recordingmode vector
attr source "packetLength(merge(packetPushedOut, packetPulledOut))"
attr title "outgoing packet lengths"
attr unit b
vector 264 UseCase.gNB.eth.macLayer.inboundEmitter incomingPacketLengths:vector ETV
attr interpolationmode none
attr recordingmode vector
attr source "packetLength(merge(packetPushedIn, packetPulledIn))"
attr title "incoming packet lengths"
attr unit b
vector 265 UseCase.gNB.eth.macLayer.inboundEmitter outgoingPacketLengths:vector ETV
attr interpolationmode none
attr recordingmode vector
attr source "packetLength(merge(packetPushedOut, packetPulledOut))"
attr title "outgoing packet lengths"
attr unit b
vector 266 UseCase.gNB.eth.macLayer.fcsChecker incomingPacketLengths:vector ETV
attr interpolationmode none
attr recordingmode vector
attr source "packetLength(merge(packetPushedIn, packetPulledIn))"
attr title "incoming packet lengths"
attr unit b
vector 267 UseCase.gNB.eth.macLayer.fcsChecker outgoingPacketLengths:vector ETV
attr interpolationmode none
attr recordingmode vector
attr source "packetLength(merge(packetPushedOut, packetPulledOut))"
attr title "outgoing packet lengths"
attr unit b
vector 268 UseCase.gNB.encap.fcsChecker incomingPacketLengths:vector ETV
attr interpolationmode none
attr recordingmode vector
attr source "packetLength(merge(packetPushedIn, packetPulledIn))"
attr title "incoming packet lengths"
attr unit b
vector 269 UseCase.gNB.encap.fcsChecker outgoingPacketLengths:vector ETV
attr interpolationmode none
attr recordingmode vector
attr source "packetLength(merge(packetPushedOut, packetPulledOut))"
attr title "outgoing packet lengths"
attr unit b
vector 270 UseCase.gNB.encap.macHeaderChecker incomingPacketLengths:vector ETV
attr interpolationmode none
attr recordingmode vector
attr source "packetLength(merge(packetPushedIn, packetPulledIn))"
attr title "incoming packet lengths"
attr unit b
vector 271 UseCase.gNB.encap.macHeaderChecker outgoingPacketLengths:vector ETV
attr interpolationmode none
attr recordingmode vector
attr source "packetLength(merge(packetPushedOut, packetPulledOut))"
attr title "outgoing packet lengths"
attr unit b
vector 272 UseCase.gNB.udp packetReceived:vector(packetBytes) ETV
attr interpolationmode none
attr recordingmode vector(packetBytes)
attr source packetReceived
attr title "packets received, packetBytes"
vector 273 UseCase.gNB.cellularNic.pdcpRrc receivedPacketFromUpperLayer:vector(packetBytes) ETV
attr interpolationmode none
attr recordingmode vector(packetBytes)
attr source receivedPacketFromUpperLayer
vector 274 UseCase.gNB.cellularNic.pdcpRrc sentPacketToLowerLayer:vector(packetBytes) ETV
attr interpolationmode none
attr recordingmode vector(packetBytes)
attr source sentPacketToLowerLayer
vector 275 UseCase.gNB.cellularNic.rlc.um receivedPacketFromUpperLayer:vector(packetBytes) ETV
attr interpolationmode none
attr recordingmode vector(packetBytes)
attr source receivedPacketFromUpperLayer
vector 276 UseCase.gNB.cellularNic.mac receivedPacketFromUpperLayer:vector(packetBytes) ETV
attr interpolationmode none
attr recordingmode vector(packetBytes)
attr source receivedPacketFromUpperLayer
vector 277 UseCase.switch5GC.eth[0].macLayer.queue incomingPacketLengths:vector ETV
attr interpolationmode none
attr recordingmode vector
attr source packetLength(packetPushStarted)
attr title "incoming packet lengths"
attr unit b
vector 278 UseCase.switch5GC.eth[0].macLayer.queue queueingTime:vector ETV
attr interpolationmode none
attr recordingmode vector
attr source queueingTime(packetPulled)
attr title "queueing times"
attr unit s
vector 279 UseCase.switch5GC.eth[0].macLayer.queue outgoingPacketLengths:vector ETV
attr interpolationmode none
attr recordingmode vector
attr source packetLength(packetPulled)
attr title "outgoing packet lengths"
attr unit b
vector 280 UseCase.switch5GC.eth[0].macLayer.server incomingPacketLengths:vector ETV
attr interpolationmode none
attr recordingmode vector
attr source packetLength(packetPulled)
attr title "incoming packet lengths"
attr unit b
vector 281 UseCase.switch5GC.eth[0].macLayer.server outgoingPacketLengths:vector ETV
attr interpolationmode none
attr recordingmode vector
attr source packetLength(packetPushed)
attr title "outgoing packet lengths"
attr unit b
vector 282 UseCase.switch5GC.eth[0].macLayer.outboundEmitter incomingPacketLengths:vector ETV
attr interpolationmode none
attr recordingmode vector
attr source "packetLength(merge(packetPushedIn, packetPulledIn))"
attr title "incoming packet lengths"
attr unit b
vector 283 UseCase.switch5GC.eth[0].macLayer.outboundEmitter outgoingPacketLengths:vector ETV
attr interpolationmode none
attr recordingmode vector
attr source "packetLength(merge(packetPushedOut, packetPulledOut))"
attr title "outgoing packet lengths"
attr unit b
vector 284 UseCase.switch5GC.eth[0].phyLayer.phyHeaderInserter incomingPacketLengths:vector ETV
attr interpolationmode none
attr recordingmode vector
attr source "packetLength(merge(packetPushedIn, packetPulledIn))"
attr title "incoming packet lengths"
attr unit b
vector 285 UseCase.switch5GC.eth[0].phyLayer.phyHeaderInserter outgoingPacketLengths:vector ETV
attr interpolationmode none
attr recordingmode vector
attr source "packetLength(merge(packetPushedOut, packetPulledOut))"
attr title "outgoing packet lengths"
attr unit b
vector 286 UseCase.switch5GC.eth[0].phyLayer.outboundEmitter incomingPacketLengths:vector ETV
attr interpolationmode none
attr recordingmode vector
attr source "packetLength(merge(packetPushedIn, packetPulledIn))"
attr title "incoming packet lengths"
attr unit b
vector 287 UseCase.switch5GC.eth[0].phyLayer.outboundEmitter outgoingPacketLengths:vector ETV
attr interpolationmode none
attr recordingmode vector
attr source "packetLength(merge(packetPushedOut, packetPulledOut))"
attr title "outgoing packet lengths"
attr unit b
vector 288 UseCase.switchTSN.ethernet.macHeaderInserter incomingPacketLengths:vector ETV
attr interpolationmode none
attr recordingmode vector
attr source "packetLength(merge(packetPushedIn, packetPulledIn))"
attr title "incoming packet lengths"
attr unit b
vector 289 UseCase.switchTSN.ethernet.macHeaderInserter outgoingPacketLengths:vector ETV
attr interpolationmode none
attr recordingmode vector
attr source "packetLength(merge(packetPushedOut, packetPulledOut))"
attr title "outgoing packet lengths"
attr unit b
vector 290 UseCase.switchTSN.ethernet.paddingInserter incomingPacketLengths:vector ETV
attr interpolationmode none
attr recordingmode vector
attr source "packetLength(merge(packetPushedIn, packetPulledIn))"
attr title "incoming packet lengths"
attr unit b
vector 291 UseCase.switchTSN.ethernet.paddingInserter outgoingPacketLengths:vector ETV
attr interpolationmode none
attr recordingmode vector
attr source "packetLength(merge(packetPushedOut, packetPulledOut))"
attr title "outgoing packet lengths"
attr unit b
vector 292 UseCase.switchTSN.ethernet.fcsInserter incomingPacketLengths:vector ETV
attr interpolationmode none
attr recordingmode vector
attr source "packetLength(merge(packetPushedIn, packetPulledIn))"
attr title "incoming packet lengths"
attr unit b
vector 293 UseCase.switchTSN.ethernet.fcsInserter outgoingPacketLengths:vector ETV
attr interpolationmode none
attr recordingmode vector
attr source "packetLength(merge(packetPushedOut, packetPulledOut))"
attr title "outgoing packet lengths"
attr unit b
vector 294 UseCase.switchTSN.eth[2].macLayer.queue incomingPacketLengths:vector ETV
attr interpolationmode none
attr recordingmode vector
attr source packetLength(packetPushStarted)
attr title "incoming packet lengths"
attr unit b
vector 295 UseCase.switchTSN.eth[1].macLayer.queue incomingPacketLengths:vector ETV
attr interpolationmode none
attr recordingmode vector
attr source packetLength(packetPushStarted)
attr title "incoming packet lengths"
attr unit b
vector 296 UseCase.switchTSN.eth[2].macLayer.queue queueingTime:vector ETV
attr interpolationmode none
attr recordingmode vector
attr source queueingTime(packetPulled)
attr title "queueing times"
attr unit s
vector 297 UseCase.switchTSN.eth[2].macLayer.queue outgoingPacketLengths:vector ETV
attr interpolationmode none
attr recordingmode vector
attr source packetLength(packetPulled)
attr title "outgoing packet lengths"
attr unit b
vector 298 UseCase.switchTSN.eth[2].macLayer.server incomingPacketLengths:vector ETV
attr interpolationmode none
attr recordingmode vector
attr source packetLength(packetPulled)
attr title "incoming packet lengths"
attr unit b
vector 299 UseCase.switchTSN.eth[2].macLayer.server outgoingPacketLengths:vector ETV
attr interpolationmode none
attr recordingmode vector
attr source packetLength(packetPushed)
attr title "outgoing packet lengths"
attr unit b
vector 300 UseCase.switchTSN.eth[2].macLayer.outboundEmitter incomingPacketLengths:vector ETV
attr interpolationmode none
attr recordingmode vector
attr source "packetLength(merge(packetPushedIn, packetPulledIn))"
attr title "incoming packet lengths"
attr unit b
vector 301 UseCase.switchTSN.eth[2].macLayer.outboundEmitter outgoingPacketLengths:vector ETV
attr interpolationmode none
attr recordingmode vector
attr source "packetLength(merge(packetPushedOut, packetPulledOut))"
attr title "outgoing packet lengths"
attr unit b
vector 302 UseCase.switchTSN.eth[2].phyLayer.phyHeaderInserter incomingPacketLengths:vector ETV
attr interpolationmode none
attr recordingmode vector
attr source "packetLength(merge(packetPushedIn, packetPulledIn))"
attr title "incoming packet lengths"
attr unit b
vector 303 UseCase.switchTSN.eth[2].phyLayer.phyHeaderInserter outgoingPacketLengths:vector ETV
attr interpolationmode none
attr recordingmode vector
attr source "packetLength(merge(packetPushedOut, packetPulledOut))"
attr title "outgoing packet lengths"
attr unit b
vector 304 UseCase.switchTSN.eth[2].phyLayer.outboundEmitter incomingPacketLengths:vector ETV
attr interpolationmode none
attr recordingmode vector
attr source "packetLength(merge(packetPushedIn, packetPulledIn))"
attr title "incoming packet lengths"
attr unit b
vector 305 UseCase.switchTSN.eth[2].phyLayer.outboundEmitter outgoingPacketLengths:vector ETV
attr interpolationmode none
attr recordingmode vector
attr source "packetLength(merge(packetPushedOut, packetPulledOut))"
attr title "outgoing packet lengths"
attr unit b
vector 306 UseCase.switchTSN.eth[1].macLayer.queue queueingTime:vector ETV
attr interpolationmode none
attr recordingmode vector
attr source queueingTime(packetPulled)
attr title "queueing times"
attr unit s
vector 307 UseCase.switchTSN.eth[1].macLayer.queue outgoingPacketLengths:vector ETV
attr interpolationmode none
attr recordingmode vector
attr source packetLength(packetPulled)
attr title "outgoing packet lengths"
attr unit b
vector 308 UseCase.switchTSN.eth[1].macLayer.server incomingPacketLengths:vector ETV
attr interpolationmode none
attr recordingmode vector
attr source packetLength(packetPulled)
attr title "incoming packet lengths"
attr unit b
vector 309 UseCase.switchTSN.eth[1].macLayer.server outgoingPacketLengths:vector ETV
attr interpolationmode none
attr recordingmode vector
attr source packetLength(packetPushed)
attr title "outgoing packet lengths"
attr unit b
vector 310 UseCase.switchTSN.eth[1].macLayer.outboundEmitter incomingPacketLengths:vector ETV
attr interpolationmode none
attr recordingmode vector
attr source "packetLength(merge(packetPushedIn, packetPulledIn))"
attr title "incoming packet lengths"
attr unit b
vector 311 UseCase.switchTSN.eth[1].macLayer.outboundEmitter outgoingPacketLengths:vector ETV
attr interpolationmode none
attr recordingmode vector
attr source "packetLength(merge(packetPushedOut, packetPulledOut))"
attr title "outgoing packet lengths"
attr unit b
vector 312 UseCase.switchTSN.eth[1].phyLayer.phyHeaderInserter incomingPacketLengths:vector ETV
attr interpolationmode none
attr recordingmode vector
attr source "packetLength(merge(packetPushedIn, packetPulledIn))"
attr title "incoming packet lengths"
attr unit b
vector 313 UseCase.switchTSN.eth[1].phyLayer.phyHeaderInserter outgoingPacketLengths:vector ETV
attr interpolationmode none
attr recordingmode vector
attr source "packetLength(merge(packetPushedOut, packetPulledOut))"
attr title "outgoing packet lengths"
attr unit b
vector 314 UseCase.switchTSN.eth[1].phyLayer.outboundEmitter incomingPacketLengths:vector ETV
attr interpolationmode none
[...]
592	65409434 8020 1664284 1889849 175.99994653855 200 242 0 24160 2727520 41433932800
593	65417454 8020 1664284 1889849 175.99994653855 200 242 0 24160 2727520 41433932800
594	65425474 8020 1664284 1889849 175.99994653855 200 242 0 24160 2727520 41433932800
595	65433494 8020 1664284 1889849 175.99994653855 200 242 0 24160 2727520 41433932800
596	65441514 8020 1664284 1889849 175.99994653855 200 242 0 24160 2727520 41433932800
597	65449534 8020 1664284 1889849 175.99994653855 200 242 0 22880 2588000 37279360000
598	65457554 8020 1664284 1889849 175.99994653855 200 242 0 22880 2588000 37279360000
599	65465574 7852 1664284 1889849 175.99994653855 200 242 0 18400 2099680 24467276800
600	65473426 8082 1664292 1889849 176.09994653855 200 241 0 16960 3640320 61371187200
601	65481508 8082 1664292 1889849 176.09994653855 200 241 0 16960 3640320 61371187200
602	65489590 8082 1664299 1889849 176.09994757855 200 241 0 18240 3916800 71044300800
603	65497672 6136 1664442 1889849 176.107 200 240 0 19840 4242560 83737395200
604	65503808 6136 1664442 1889849 176.107 200 240 0 22080 4724160 103822848000
605	65509944 6136 1664442 1889849 176.107 200 240 0 22080 4724160 103822848000
606	65516080 6136 1664442 1889849 176.107 200 240 0 22080 4724160 103822848000
607	65522216 6136 1664442 1889849 176.107 200 240 0 22080 4724160 103822848000
608	65528352 6136 1664442 1889849 176.107 200 240 0 22720 4861760 109957836800
609	65534488 6136 1664442 1889849 176.107 200 240 0 22720 4861760 109957836800
610	65540624 7833 1664444 1889849 176.107001072 200 240 0 0.0024 0.513696 0.001227561984
611	65548457 7570 1664444 1889849 176.107001168 200 240 0 22720 4861760 109957836800
612	65556027 7570 1664444 1889849 176.107001168 200 240 0 22720 4861760 109957836800
613	65563597 7570 1664444 1889849 176.107001168 200 240 0 22720 4861760 109957836800
614	65571167 7570 1664444 1889849 176.107001168 200 240 0 22720 4861760 109957836800
615	65578737 7570 1664444 1889849 176.107001168 200 240 0 22720 4861760 109957836800
616	65586307 7570 1664444 1889849 176.107001168 200 240 0 22720 4861760 109957836800
617	65593877 7570 1664444 1889849 176.107001168 200 240 0 24000 5136960 122756198400
618	65601447 7570 1664444 1889849 176.107001168 200 240 0 24000 5136960 122756198400
619	65609017 7570 1664444 1889849 176.107001168 200 240 0 24000 5136960 122756198400
620	65616587 8215 1664454 1889849 176.107001906 200 240 0 0.001824 0.389856 0.000707116032
621	65624802 7570 1664447 1889849 176.107002496 200 240 0 24000 5136960 122756198400
622	65632372 8191 1664464 1889849 176.107002532 200 240 0 0.001392 0.296592 0.000409415424
623	65640563 7570 1664453 1889849 176.107002546 200 240 0 14080 3004160 41996288000
624	65648133 7570 1664453 1889849 176.107002546 200 240 0 16320 3485760 56533708800
625	65655703 7570 1664453 1889849 176.107002546 200 240 0 16320 3485760 56533708800
626	65663273 7570 1664453 1889849 176.107002546 200 240 0 16320 3485760 56533708800
627	65670843 7570 1664453 1889849 176.107002546 200 240 0 16320 3485760 56533708800
628	65678413 7570 1664453 1889849 176.107002546 200 240 0 16960 3623360 61083545600
629	65685983 7570 1664453 1889849 176.107002546 200 240 0 16960 3623360 61083545600
630	65693553 7570 1664454 1889849 176.107002546 200 240 0 16960 3623360 61083545600
631	65701123 7570 1664454 1889849 176.107002546 200 240 0 16960 3623360 61083545600
632	65708693 7570 1664454 1889849 176.107002546 200 240 0 16960 3623360 61083545600
633	65716263 7570 1664454 1889849 176.107002546 200 240 0 16960 3623360 61083545600
634	65723833 7570 1664454 1889849 176.107002546 200 240 0 16960 3623360 61083545600
635	65731403 7570 1664454 1889849 176.107002546 200 240 0 16960 3623360 61083545600
636	65738973 7570 1664454 1889849 176.107002546 200 240 0 18240 3898560 70711603200
637	65746543 7570 1664454 1889849 176.107002546 200 240 0 18240 3898560 70711603200
638	65754113 7570 1664454 1889849 176.107002546 200 240 0 18240 3898560 70711603200
639	65761683 7570 1664457 1889849 176.107003586 200 240 0 18240 3898560 70711603200
640	65769253 7570 1664464 1889849 176.107003636 200 240 0 12480 2660160 32933376000
641	65776823 7570 1664464 1889849 176.107003636 200 240 0 12480 2660160 32933376000
642	65784393 7570 1664468 1889849 176.107004452 200 240 0 13920 2965920 40941542400
643	65791963 7570 1664476 1889849 176.107004502 200 240 0 13920 2965920 40941542400
644	65799533 7570 1664476 1889849 176.107004502 200 240 0 13920 2965920 40941542400
645	65807103 7570 1664476 1889849 176.107004502 200 240 0 13920 2965920 40941542400
646	65814673 7570 1664476 1889849 176.107004502 200 240 0 13920 2965920 40941542400
647	65822243 7570 1664476 1889849 176.107004502 200 240 0 12640 2690720 33701043200
648	65829813 7570 1664476 1889849 176.107004502 200 240 0 12640 2690720 33701043200
649	65837383 7570 1664476 1889849 176.107004502 200 240 0 12640 2690720 33701043200
650	65844953 7570 1664476 1889849 176.107004502 200 240 0 12640 2690720 33701043200
651	65852523 7570 1664476 1889849 176.107004502 200 240 0 12640 2690720 33701043200
652	65860093 8099 1664495 1889849 176.007005078 200 241 0 0.002672 0.29936041924147 0.00049877209792829
653	65868192 7520 1664494 1889849 176.007005078 200 241 0 24160 2715747.7731732 41003684124.192
654	65875712 7520 1664495 1889849 176.007005174 200 241 0 24160 2715747.7859613 41003684441.024
655	65883232 7520 1664495 1889849 176.007005174 200 241 0 24160 2715747.7859613 41003684441.024
656	65890752 7520 1664495 1889849 176.007005174 200 241 0 24160 2715747.7859613 41003684441.024
657	65898272 7520 1664495 1889849 176.007005174 200 241 0 24160 2715747.7859613 41003684441.024
658	65905792 7520 1664495 1889849 176.007005174 200 241 0 24160 2715747.7859613 41003684441.024
659	65913312 7520 1664495 1889849 176.007005174 200 241 0 24160 2715747.7859613 41003684441.024
660	65920832 7519 1664495 1889849 176.007005174 200 241 0 26720 2993604.2066237 49877210183.98
661	65928351 7519 1664495 1889849 176.007005174 200 241 0 26720 2993604.2066237 49877210183.98
662	65935870 7519 1664495 1889849 176.007005174 200 241 0 26720 2993604.2066237 49877210183.98
663	65943389 7280 1664497 1889849 176.00700599 200 241 0 26720 2993604.3274013 49877213508.81
664	65950669 7280 1664500 1889849 176.00700604 200 241 0 26720 2993604.334802 49877213712.54
665	65957949 7280 1664500 1889849 176.00700604 200 241 0 26720 2993604.334802 49877213712.54
666	65965229 7280 1664500 1889849 176.00700604 200 241 0 26720 2993604.334802 49877213712.54
667	65972509 7280 1664500 1889849 176.00700604 200 241 0 26720 2993604.334802 49877213712.54
668	65979789 7280 1664500 1889849 176.00700604 200 241 0 24160 2715747.9013218 41003687299.158
669	65987069 7280 1664500 1889849 176.00700604 200 241 0 24160 2715747.9013218 41003687299.158
670	65994349 7280 1664500 1889849 176.00700604 200 241 0 24160 2715747.9013218 41003687299.158
671	66001629 7280 1664500 1889849 176.00700604 200 241 0 24160 2715747.9013218 41003687299.158
672	66008909 7280 1664500 1889849 176.00700604 200 241 0 24160 2715747.9013218 41003687299.158
673	66016189 7280 1664500 1889849 176.00700604 200 241 0 24160 2715747.9013218 41003687299.158
674	66023469 7280 1664500 1889849 176.00700604 200 241 0 22880 2576819.6845817 36892748219.31
675	66030749 7280 1664500 1889849 176.00700604 200 241 0 22880 2576819.6845817 36892748219.31
676	66038029 7112 1664500 1889849 176.00700604 200 241 0 18400 2090570.9259913 24215038105.776
677	66045141 7386 1672295 1889849 176.09964968226 200 241 0 11520 414720 3981312000
678	66052527 7386 1672295 1889849 176.09964968226 200 241 0 10880 391680 3551232000
679	66059913 7386 1672295 1889849 176.09964968226 200 241 0 10880 391680 3551232000
680	66067299 7362 1672295 1889849 176.09964968226 200 241 0 8640 311040 2239488000
681	66074661 7362 1672295 1889849 176.09964968226 200 241 0 8640 311040 2239488000
682	66082023 7362 1672295 1889849 176.09964968226 200 241 0 8640 311040 2239488000
683	66089385 7639 1672293 1889849 175.998999638761 200 242 0 0.00064 0.016 1.024e-05
684	66097024 7639 1672304 1889849 175.999008548931 200 242 0 0.00064 0.016 1.024e-05
685	66104663 7664 1672319 1889849 175.999009462931 200 242 0 0.000864 0.0216 1.86624e-05
686	66112327 7664 1672334 1889849 175.999010664931 200 242 0 0.001152 0.0288 3.31776e-05
687	66119991 7639 1672349 1889849 175.999012454003 200 242 0 0.00064 0.016 1.024e-05
688	66127630 7639 1672357 1889849 175.999015013183 200 242 0 0.00064 0.016 1.024e-05
689	66135269 6906 1672510 1889849 176.001500864 200 241 0 0.000864 0.020736 1.7915904e-05
690	66142175 6882 1672521 1889849 176.001501554 200 241 0 0.00064 0.01536 9.8304e-06
691	66149057 7564 1672292 1889849 175.998988998869 200 242 0 4320 108000 466560000
692	66156621 7564 1672292 1889849 175.998988998869 200 242 0 5440 136000 739840000
693	66164185 7564 1672292 1889849 175.998988998869 200 242 0 5440 136000 739840000
694	66171749 7564 1672292 1889849 175.998988998869 200 242 0 5440 136000 739840000
695	66179313 7564 1672292 1889849 175.998988998869 200 242 0 5440 136000 739840000
696	66186877 7564 1672292 1889849 175.998988998869 200 242 0 5760 144000 829440000
697	66194441 7564 1672292 1889849 175.998988998869 200 242 0 5760 144000 829440000
698	66202005 7564 1672293 1889849 175.998988998869 200 242 0 5760 144000 829440000
699	66209569 7564 1672293 1889849 175.998988998869 200 242 0 5760 144000 829440000
700	66217133 7564 1672293 1889849 175.998988998869 200 242 0 5760 144000 829440000
701	66224697 7564 1672293 1889849 175.998988998869 200 242 0 5760 144000 829440000
702	66232261 7564 1672293 1889849 175.998988998869 200 242 0 5760 144000 829440000
703	66239825 7564 1672293 1889849 175.998988998869 200 242 0 5760 144000 829440000
704	66247389 7564 1672293 1889849 175.998988998869 200 242 0 6400 160000 1024000000
705	66254953 7564 1672293 1889849 175.998988998869 200 242 0 6400 160000 1024000000
706	66262517 7564 1672293 1889849 175.998988998869 200 242 0 6400 160000 1024000000
707	66270081 7564 1672294 1889849 175.998989638869 200 242 0 6400 160000 1024000000
708	66277645 7564 1672295 1889849 175.998989688869 200 242 0 6400 160000 1024000000
709	66285209 7564 1672295 1889849 175.998989688869 200 242 0 6400 160000 1024000000
710	66292773 7564 1672295 1889849 175.998989688869 200 242 0 6400 160000 1024000000
711	66300337 7564 1672295 1889849 175.998989688869 200 242 0 6400 160000 1024000000
712	66307901 7564 1672295 1889849 175.998989688869 200 242 0 5760 144000 829440000
713	66315465 7564 1672295 1889849 175.998989688869 200 242 0 5760 144000 829440000
714	66323029 7564 1672295 1889849 175.998989688869 200 242 0 5760 144000 829440000
715	66330593 7564 1672295 1889849 175.998989688869 200 242 0 5760 144000 829440000
716	66338157 7564 1672295 1889849 175.998989688869 200 242 0 5760 144000 829440000
717	66345721 7564 1672303 1889849 175.998997909123 200 242 0 5760 144000 829440000
718	66353285 7564 1672304 1889849 175.998997909123 200 242 0 5760 144000 829440000
719	66360849 7564 1672304 1889849 175.998997909123 200 242 0 5760 144000 829440000
720	66368413 7564 1672304 1889849 175.998997909123 200 242 0 5760 144000 829440000
721	66375977 7564 1672304 1889849 175.998997909123 200 242 0 5760 144000 829440000
722	66383541 7564 1672304 1889849 175.998997909123 200 242 0 5760 144000 829440000
723	66391105 7564 1672304 1889849 175.998997909123 200 242 0 5760 144000 829440000
724	66398669 7564 1672304 1889849 175.998997909123 200 242 0 6400 160000 1024000000
725	66406233 7564 1672304 1889849 175.998997909123 200 242 0 6400 160000 1024000000
726	66413797 7564 1672304 1889849 175.998997909123 200 242 0 6400 160000 1024000000
727	66421361 7564 1672312 1889849 175.998998549123 200 242 0 6400 160000 1024000000
728	66428925 7564 1672319 1889849 175.998998599123 200 242 0 8000 200000 1600000000
729	66436489 7564 1672319 1889849 175.998998599123 200 242 0 8000 200000 1600000000
730	66444053 7564 1672327 1889849 175.998999463123 200 242 0 8640 216000 1866240000
731	66451617 7564 1672328 1889849 175.998999513123 200 242 0 8640 216000 1866240000
732	66459181 7564 1672328 1889849 175.998999513123 200 242 0 8640 216000 1866240000
733	66466745 7564 1672328 1889849 175.998999513123 200 242 0 8640 216000 1866240000
734	66474309 7564 1672328 1889849 175.998999513123 200 242 0 8640 216000 1866240000
735	66481873 7564 1672328 1889849 175.998999513123 200 242 0 8000 200000 1600000000
736	66489437 7564 1672328 1889849 175.998999513123 200 242 0 8000 200000 1600000000
737	66497001 7564 1672328 1889849 175.998999513123 200 242 0 8000 200000 1600000000
738	66504565 7564 1672328 1889849 175.998999513123 200 242 0 8000 200000 1600000000
739	66512129 7564 1672328 1889849 175.998999513123 200 242 0 8000 200000 1600000000
740	66519693 7564 1672328 1889849 175.998999513123 200 242 0 8000 200000 1600000000
741	66527257 7564 1672328 1889849 175.998999513123 200 242 0 7680 192000 1474560000
742	66534821 7564 1672328 1889849 175.998999513123 200 242 0 7680 192000 1474560000
743	66542385 7564 1672328 1889849 175.998999513123 200 242 0 6560 164000 1075840000
744	66549949 7589 1672334 1889849 175.998999513123 200 242 0 10880 272000 2959360000
745	66557538 7589 1672334 1889849 175.998999513123 200 242 0 10880 272000 2959360000
746	66565127 7589 1672336 1889849 175.999000665123 200 242 0 11520 288000 3317760000
747	66572716 7589 1672337 1889849 175.999000715123 200 242 0 11520 288000 3317760000
748	66580305 7589 1672337 1889849 175.999000715123 200 242 0 11520 288000 3317760000
749	66587894 7589 1672337 1889849 175.999000715123 200 242 0 11520 288000 3317760000
750	66595483 7589 1672337 1889849 175.999000715123 200 242 0 11520 288000 3317760000
751	66603072 7589 1672337 1889849 175.999000715123 200 242 0 10880 272000 2959360000
752	66610661 7589 1672337 1889849 175.999000715123 200 242 0 10880 272000 2959360000
753	66618250 7589 1672337 1889849 175.999000715123 200 242 0 10880 272000 2959360000
754	66625839 7589 1672337 1889849 175.999000715123 200 242 0 10880 272000 2959360000
755	66633428 7589 1672337 1889849 175.999000715123 200 242 0 10880 272000 2959360000
756	66641017 7589 1672337 1889849 175.999000715123 200 242 0 10880 272000 2959360000
757	66648606 7589 1672337 1889849 175.999000715123 200 242 0 10560 264000 2787840000
758	66656195 7589 1672337 1889849 175.999000715123 200 242 0 10560 264000 2787840000
759	66663784 7564 1672337 1889849 175.999000715123 200 242 0 9440 236000 2227840000
760	66671348 7564 1672348 1889849 175.999001814145 200 242 0 4320 108000 466560000
761	66678912 7564 1672348 1889849 175.999001814145 200 242 0 5440 136000 739840000
762	66686476 7564 1672348 1889849 175.999001814145 200 242 0 5440 136000 739840000
763	66694040 7564 1672348 1889849 175.999001814145 200 242 0 5440 136000 739840000
764	66701604 7564 1672348 1889849 175.999001814145 200 242 0 5440 136000 739840000
765	66709168 7564 1672348 1889849 175.999001814145 200 242 0 5760 144000 829440000
766	66716732 7564 1672348 1889849 175.999001814145 200 242 0 5760 144000 829440000
767	66724296 7564 1672349 1889849 175.999001814145 200 242 0 5760 144000 829440000
768	66731860 7564 1672349 1889849 175.999001814145 200 242 0 5760 144000 829440000
769	66739424 7564 1672349 1889849 175.999001814145 200 242 0 5760 144000 829440000
770	66746988 7564 1672349 1889849 175.999001814145 200 242 0 5760 144000 829440000
771	66754552 7564 1672349 1889849 175.999001814145 200 242 0 5760 144000 829440000
772	66762116 7564 1672349 1889849 175.999001814145 200 242 0 5760 144000 829440000
773	66769680 7564 1672349 1889849 175.999001814145 200 242 0 6400 160000 1024000000
774	66777244 7564 1672349 1889849 175.999001814145 200 242 0 6400 160000 1024000000
775	66784808 7564 1672349 1889849 175.999001814145 200 242 0 6400 160000 1024000000
776	66792372 7564 1672350 1889849 175.999002454145 200 242 0 6400 160000 1024000000
777	66799936 7564 1672351 1889849 175.999002504145 200 242 0 6400 160000 1024000000
778	66807500 7564 1672351 1889849 175.999002504145 200 242 0 6400 160000 1024000000
779	66815064 7564 1672351 1889849 175.999002504145 200 242 0 6400 160000 1024000000
780	66822628 7564 1672351 1889849 175.999002504145 200 242 0 6400 160000 1024000000
781	66830192 7564 1672351 1889849 175.999002504145 200 242 0 5760 144000 829440000
782	66837756 7564 1672351 1889849 175.999002504145 200 242 0 5760 144000 829440000
783	66845320 7564 1672351 1889849 175.999002504145 200 242 0 5760 144000 829440000
784	66852884 7564 1672351 1889849 175.999002504145 200 242 0 5760 144000 829440000
785	66860448 7564 1672351 1889849 175.999002504145 200 242 0 5760 144000 829440000
786	66868012 7564 1672356 1889849 175.999004373283 200 242 0 4320 108000 466560000
787	66875576 7564 1672356 1889849 175.999004373283 200 242 0 5440 136000 739840000
788	66883140 7564 1672356 1889849 175.999004373283 200 242 0 5440 136000 739840000
789	66890704 7564 1672356 1889849 175.999004373283 200 242 0 5440 136000 739840000
790	66898268 7564 1672356 1889849 175.999004373283 200 242 0 5440 136000 739840000
791	66905832 7564 1672356 1889849 175.999004373283 200 242 0 5760 144000 829440000
792	66913396 7564 1672356 1889849 175.999004373283 200 242 0 5760 144000 829440000
793	66920960 7564 1672357 1889849 175.999004373283 200 242 0 5760 144000 829440000
794	66928524 7564 1672357 1889849 175.999004373283 200 242 0 5760 144000 829440000
795	66936088 7564 1672357 1889849 175.999004373283 200 242 0 5760 144000 829440000
796	66943652 7564 1672357 1889849 175.999004373283 200 242 0 5760 144000 829440000
797	66951216 7564 1672357 1889849 175.999004373283 200 242 0 5760 144000 829440000
798	66958780 7564 1672357 1889849 175.999004373283 200 242 0 5760 144000 829440000
799	66966344 7564 1672357 1889849 175.999004373283 200 242 0 6400 160000 1024000000
800	66973908 7564 1672357 1889849 175.999004373283 200 242 0 6400 160000 1024000000
801	66981472 7564 1672357 1889849 175.999004373283 200 242 0 6400 160000 1024000000
802	66989036 7564 1672358 1889849 175.999005013283 200 242 0 6400 160000 1024000000
803	66996600 7564 1672359 1889849 175.999005063283 200 242 0 6400 160000 1024000000
804	67004164 7564 1672359 1889849 175.999005063283 200 242 0 6400 160000 1024000000
805	67011728 7564 1672359 1889849 175.999005063283 200 242 0 6400 160000 1024000000
806	67019292 7564 1672359 1889849 175.999005063283 200 242 0 6400 160000 1024000000
807	67026856 7564 1672359 1889849 175.999005063283 200 242 0 5760 144000 829440000
808	67034420 7564 1672359 1889849 175.999005063283 200 242 0 5760 144000 829440000
809	67041984 7564 1672359 1889849 175.999005063283 200 242 0 5760 144000 829440000
810	67049548 7564 1672359 1889849 175.999005063283 200 242 0 5760 144000 829440000
811	67057112 7564 1672359 1889849 175.999005063283 200 242 0 5760 144000 829440000
812	67064676 5624 1672510 1889849 176.0015 200 241 0 8121.8274111675 200121.82741117 1601964080.4968
813	67070300 5624 1672510 1889849 176.0015 200 241 0 8121.8274111675 200121.82741117 1601964080.4968
814	67075924 6810 1672514 1889849 176.001500864 200 241 0 8640 207360 1791590400
815	67082734 6810 1672521 1889849 176.001500914 200 241 0 5760 138240 796262400
816	67089544 6810 1672521 1889849 176.001500914 200 241 0 5760 138240 796262400
817	67096354 6810 1672523 1889849 176.001501554 200 241 0 6400 153600 983040000
818	67103164 6810 1672524 1889849 176.001501604 200 241 0 6400 153600 983040000
819	67109974 6810 1672524 1889849 176.001501604 200 241 0 6400 153600 983040000
820	67116784 6810 1672524 1889849 176.001501604 200 241 0 6400 153600 983040000
821	67123594 6810 1672524 1889849 176.001501604 200 241 0 6400 153600 983040000
822	67130404 6810 1672524 1889849 176.001501604 200 241 0 5760 138240 796262400
823	67137214 6810 1672524 1889849 176.001501604 200 241 0 5760 138240 796262400
824	67144024 6810 1672524 1889849 176.001501604 200 241 0 5760 138240 796262400
825	67150834 6810 1672524 1889849 176.001501604 200 241 0 5760 138240 796262400
826	67157644 6810 1672524 1889849 176.001501604 200 241 0 5760 138240 796262400

