version 3
run UL-Synchronization-0-20240411-19:30:04-80648
attr configname UL-Synchronization
attr datetime 20240411-19:30:04
attr datetimef 20240411-193004
attr experiment UL-Synchronization
attr inifile omnetpp.ini
attr iterationvars $u=1
attr iterationvarsd u=1
attr iterationvarsf u=1-
attr measurement $u=1
attr network UseCase
attr processid 80648
attr repetition 0
attr replication #0
attr resultdir results
attr runnumber 0
attr seedset 0
itervar u 1
config image-path ../../inet/images:../../Simu5G/images
config extends timeSynchronization
config **.hasTimeSynchronization true
config **.referenceClock "\"switchTSN.clock\""
config *.switchTSN.clock.oscillator.driftRate 10ppm
config **.oscillator.driftRate "uniform(10ppm, 100ppm)"
config *.switchTSN.gptp.gptpNodeType "\"MASTER_NODE\""
config *.switchTSN.gptp.masterPorts "[\"eth0\",\"eth1\",\"eth2\"]"
config *.switchTSN.gptp.slavePort "\"\""
config *.switch*.gptp.masterPorts "[\"eth0\"]"
config *.switch*.gptp.slavePort "\"eth1\""
config *.NSTT.gptp.masterPorts "[\"eth1\"]"
config *.NSTT.gptp.slavePort "\"eth0\""
config *.NSTT.gptp.slaveDomains [0]
config *.DSTT.gptp.masterPorts "[\"eth0\"]"
config *.DSTT.gptp.slavePort "\"eth1\""
config *.DSTT.gptp.masterDomains [0]
config *.switch5GC.clock.displayStringTextFormat "\"diff: %d\""
config *.switchTSN.clock.displayStringTextFormat "\"time: %T\""
config *.upf.clock.typename IdealClock
config *.*TT.clock.typename IdealClock
config **.clock.oscillator.typename ConstantDriftOscillator
config *.*TT.gptp.typename Gptp5g
config *.*TT.gptp.fiveGPort "\"eth0\""
config *.visualizer.typename IntegratedMultiCanvasVisualizer
config *.visualizer.numInfoVisualizers 1
config *.visualizer.infoVisualizer[0].modules "\"**.clock\""
config *.visualizer.infoVisualizer[0].placementHint "\"bottom\""
config *.PLC.clock.displayStringTextFormat "\"diff: %d\""
config *.Actuato*.clock.displayStringTextFormat "\"diff: %d\""
config *.Sensor.clock.displayStringTextFormat "\"diff: %d\""
config *.switch*.clock.displayStringTextFormat "\"diff: %d\""
config network UseCase
config sim-time-limit 200s
config **.eth*.bitrate 1Gbps
config **.mobility.typename ""
config *.ue.macCellId 0
config *.ue.masterId 0
config *.ue.nrMacCellId 1
config *.ue.nrMasterId 1
config *.ue.intHostAddress "\"Sensor Actuator DSTT\""
config **.amcType "\"NRAmc\""
config **.targetBler 0.001
config **.blerShift 5
config **.numerologyIndex 1
config **.useTdd true
config **.numBands 200
config *.NSTT.**.translatorType "\"NS_TT\""

par UseCase.PLC.ethg$o[0].channel typename "\"inet.node.ethernet.Eth1G\""
par UseCase.PLC.ethg$o[0].channel disabled false
attr mutable ""
par UseCase.PLC.ethg$o[0].channel delay 5e-08s
attr mutable ""
attr unit s
par UseCase.PLC.ethg$o[0].channel datarate 1e+09bps
attr mutable ""
attr unit bps
par UseCase.PLC.ethg$o[0].channel ber 0
attr mutable ""
par UseCase.PLC.ethg$o[0].channel per 0
attr mutable ""
par UseCase.PLC.ethg$o[0].channel enabledLineStyle "\"solid\""
par UseCase.PLC.ethg$o[0].channel disabledLineStyle "\"dashed\""
par UseCase.PLC.ethg$o[0].channel disabledIcon "\"status/cross\""
par UseCase.PLC.ethg$o[0].channel length 10m
attr unit m
par UseCase.switch5GC.ethg$o[0].channel typename "\"inet.node.ethernet.Eth1G\""
par UseCase.switch5GC.ethg$o[0].channel disabled false
attr mutable ""
par UseCase.switch5GC.ethg$o[0].channel delay 5e-08s
attr mutable ""
attr unit s
par UseCase.switch5GC.ethg$o[0].channel datarate 1e+09bps
attr mutable ""
attr unit bps
par UseCase.switch5GC.ethg$o[0].channel ber 0
attr mutable ""
par UseCase.switch5GC.ethg$o[0].channel per 0
attr mutable ""
par UseCase.switch5GC.ethg$o[0].channel enabledLineStyle "\"solid\""
par UseCase.switch5GC.ethg$o[0].channel disabledLineStyle "\"dashed\""
par UseCase.switch5GC.ethg$o[0].channel disabledIcon "\"status/cross\""
par UseCase.switch5GC.ethg$o[0].channel length 10m
attr unit m
par UseCase.NSTT.ethg$o[0].channel typename "\"inet.node.ethernet.Eth1G\""
par UseCase.NSTT.ethg$o[0].channel disabled false
attr mutable ""
par UseCase.NSTT.ethg$o[0].channel delay 5e-08s
attr mutable ""
attr unit s
par UseCase.NSTT.ethg$o[0].channel datarate 1e+09bps
attr mutable ""
attr unit bps
par UseCase.NSTT.ethg$o[0].channel ber 0
attr mutable ""
par UseCase.NSTT.ethg$o[0].channel per 0
attr mutable ""
par UseCase.NSTT.ethg$o[0].channel enabledLineStyle "\"solid\""
par UseCase.NSTT.ethg$o[0].channel disabledLineStyle "\"dashed\""
par UseCase.NSTT.ethg$o[0].channel disabledIcon "\"status/cross\""
par UseCase.NSTT.ethg$o[0].channel length 10m
attr unit m
par UseCase.upf.filterGate$o.channel typename "\"inet.node.ethernet.Eth1G\""
par UseCase.upf.filterGate$o.channel disabled false
attr mutable ""
par UseCase.upf.filterGate$o.channel delay 5e-08s
attr mutable ""
attr unit s
par UseCase.upf.filterGate$o.channel datarate 1e+09bps
attr mutable ""
attr unit bps
par UseCase.upf.filterGate$o.channel ber 0
attr mutable ""
par UseCase.upf.filterGate$o.channel per 0
attr mutable ""
par UseCase.upf.filterGate$o.channel enabledLineStyle "\"solid\""
par UseCase.upf.filterGate$o.channel disabledLineStyle "\"dashed\""
par UseCase.upf.filterGate$o.channel disabledIcon "\"status/cross\""
par UseCase.upf.filterGate$o.channel length 10m
attr unit m
par UseCase.switch5GC.ethg$o[1].channel typename "\"inet.node.ethernet.Eth1G\""
par UseCase.switch5GC.ethg$o[1].channel disabled false
attr mutable ""
par UseCase.switch5GC.ethg$o[1].channel delay 5e-08s
attr mutable ""
attr unit s
par UseCase.switch5GC.ethg$o[1].channel datarate 1e+09bps
attr mutable ""
attr unit bps
par UseCase.switch5GC.ethg$o[1].channel ber 0
attr mutable ""
par UseCase.switch5GC.ethg$o[1].channel per 0
attr mutable ""
par UseCase.switch5GC.ethg$o[1].channel enabledLineStyle "\"solid\""
par UseCase.switch5GC.ethg$o[1].channel disabledLineStyle "\"dashed\""
par UseCase.switch5GC.ethg$o[1].channel disabledIcon "\"status/cross\""
par UseCase.switch5GC.ethg$o[1].channel length 10m
attr unit m
par UseCase.NSTT.ethg$o[1].channel typename "\"inet.node.ethernet.Eth1G\""
par UseCase.NSTT.ethg$o[1].channel disabled false
attr mutable ""
par UseCase.NSTT.ethg$o[1].channel delay 5e-08s
attr mutable ""
attr unit s
par UseCase.NSTT.ethg$o[1].channel datarate 1e+09bps
attr mutable ""
attr unit bps
par UseCase.NSTT.ethg$o[1].channel ber 0
attr mutable ""
par UseCase.NSTT.ethg$o[1].channel per 0
attr mutable ""
par UseCase.NSTT.ethg$o[1].channel enabledLineStyle "\"solid\""
par UseCase.NSTT.ethg$o[1].channel disabledLineStyle "\"dashed\""
par UseCase.NSTT.ethg$o[1].channel disabledIcon "\"status/cross\""
par UseCase.NSTT.ethg$o[1].channel length 10m
attr unit m
par UseCase.upf.ethg$o[0].channel typename "\"inet.node.ethernet.Eth1G\""
par UseCase.upf.ethg$o[0].channel disabled false
attr mutable ""
par UseCase.upf.ethg$o[0].channel delay 5e-08s
attr mutable ""
attr unit s
par UseCase.upf.ethg$o[0].channel datarate 1e+09bps
attr mutable ""
attr unit bps
par UseCase.upf.ethg$o[0].channel ber 0
attr mutable ""
par UseCase.upf.ethg$o[0].channel per 0
attr mutable ""
par UseCase.upf.ethg$o[0].channel enabledLineStyle "\"solid\""
par UseCase.upf.ethg$o[0].channel disabledLineStyle "\"dashed\""
par UseCase.upf.ethg$o[0].channel disabledIcon "\"status/cross\""
par UseCase.upf.ethg$o[0].channel length 10m
attr unit m
par UseCase.gNB.ethg$o.channel typename "\"inet.node.ethernet.Eth1G\""
par UseCase.gNB.ethg$o.channel disabled false
attr mutable ""
par UseCase.gNB.ethg$o.channel delay 5e-08s
attr mutable ""
attr unit s
par UseCase.gNB.ethg$o.channel datarate 1e+09bps
attr mutable ""
attr unit bps
par UseCase.gNB.ethg$o.channel ber 0
attr mutable ""
par UseCase.gNB.ethg$o.channel per 0
attr mutable ""
par UseCase.gNB.ethg$o.channel enabledLineStyle "\"solid\""
par UseCase.gNB.ethg$o.channel disabledLineStyle "\"dashed\""
par UseCase.gNB.ethg$o.channel disabledIcon "\"status/cross\""
par UseCase.gNB.ethg$o.channel length 10m
attr unit m
par UseCase.ue.ethg$o[0].channel typename "\"inet.node.ethernet.Eth1G\""
par UseCase.ue.ethg$o[0].channel disabled false
attr mutable ""
par UseCase.ue.ethg$o[0].channel delay 5e-08s
attr mutable ""
attr unit s
par UseCase.ue.ethg$o[0].channel datarate 1e+09bps
attr mutable ""
attr unit bps
par UseCase.ue.ethg$o[0].channel ber 0
attr mutable ""
par UseCase.ue.ethg$o[0].channel per 0
attr mutable ""
par UseCase.ue.ethg$o[0].channel enabledLineStyle "\"solid\""
par UseCase.ue.ethg$o[0].channel disabledLineStyle "\"dashed\""
par UseCase.ue.ethg$o[0].channel disabledIcon "\"status/cross\""
par UseCase.ue.ethg$o[0].channel length 10m
attr unit m
par UseCase.DSTT.ethg$o[0].channel typename "\"inet.node.ethernet.Eth1G\""
par UseCase.DSTT.ethg$o[0].channel disabled false
attr mutable ""
par UseCase.DSTT.ethg$o[0].channel delay 5e-08s
attr mutable ""
attr unit s
par UseCase.DSTT.ethg$o[0].channel datarate 1e+09bps
attr mutable ""
attr unit bps
par UseCase.DSTT.ethg$o[0].channel ber 0
attr mutable ""
par UseCase.DSTT.ethg$o[0].channel per 0
attr mutable ""
par UseCase.DSTT.ethg$o[0].channel enabledLineStyle "\"solid\""
par UseCase.DSTT.ethg$o[0].channel disabledLineStyle "\"dashed\""
par UseCase.DSTT.ethg$o[0].channel disabledIcon "\"status/cross\""
par UseCase.DSTT.ethg$o[0].channel length 10m
attr unit m
par UseCase.DSTT.ethg$o[1].channel typename "\"inet.node.ethernet.Eth1G\""
par UseCase.DSTT.ethg$o[1].channel disabled false
attr mutable ""
par UseCase.DSTT.ethg$o[1].channel delay 5e-08s
attr mutable ""
attr unit s
par UseCase.DSTT.ethg$o[1].channel datarate 1e+09bps
attr mutable ""
attr unit bps
par UseCase.DSTT.ethg$o[1].channel ber 0
attr mutable ""
par UseCase.DSTT.ethg$o[1].channel per 0
attr mutable ""
par UseCase.DSTT.ethg$o[1].channel enabledLineStyle "\"solid\""
par UseCase.DSTT.ethg$o[1].channel disabledLineStyle "\"dashed\""
par UseCase.DSTT.ethg$o[1].channel disabledIcon "\"status/cross\""
par UseCase.DSTT.ethg$o[1].channel length 10m
attr unit m
par UseCase.switchTSN.ethg$o[0].channel typename "\"inet.node.ethernet.Eth1G\""
par UseCase.switchTSN.ethg$o[0].channel disabled false
attr mutable ""
par UseCase.switchTSN.ethg$o[0].channel delay 5e-08s
attr mutable ""
attr unit s
par UseCase.switchTSN.ethg$o[0].channel datarate 1e+09bps
attr mutable ""
attr unit bps
par UseCase.switchTSN.ethg$o[0].channel ber 0
attr mutable ""
par UseCase.switchTSN.ethg$o[0].channel per 0
attr mutable ""
par UseCase.switchTSN.ethg$o[0].channel enabledLineStyle "\"solid\""
par UseCase.switchTSN.ethg$o[0].channel disabledLineStyle "\"dashed\""
par UseCase.switchTSN.ethg$o[0].channel disabledIcon "\"status/cross\""
par UseCase.switchTSN.ethg$o[0].channel length 10m
attr unit m
par UseCase.switchTSN.ethg$o[1].channel typename "\"inet.node.ethernet.Eth1G\""
par UseCase.switchTSN.ethg$o[1].channel disabled false
attr mutable ""
par UseCase.switchTSN.ethg$o[1].channel delay 5e-08s
attr mutable ""
attr unit s
par UseCase.switchTSN.ethg$o[1].channel datarate 1e+09bps
attr mutable ""
attr unit bps
par UseCase.switchTSN.ethg$o[1].channel ber 0
attr mutable ""
par UseCase.switchTSN.ethg$o[1].channel per 0
attr mutable ""
par UseCase.switchTSN.ethg$o[1].channel enabledLineStyle "\"solid\""
par UseCase.switchTSN.ethg$o[1].channel disabledLineStyle "\"dashed\""
par UseCase.switchTSN.ethg$o[1].channel disabledIcon "\"status/cross\""
par UseCase.switchTSN.ethg$o[1].channel length 10m
attr unit m
par UseCase.Sensor.ethg$o[0].channel typename "\"inet.node.ethernet.Eth1G\""
par UseCase.Sensor.ethg$o[0].channel disabled false
attr mutable ""
par UseCase.Sensor.ethg$o[0].channel delay 5e-08s
attr mutable ""
attr unit s
par UseCase.Sensor.ethg$o[0].channel datarate 1e+09bps
attr mutable ""
attr unit bps
par UseCase.Sensor.ethg$o[0].channel ber 0
attr mutable ""
par UseCase.Sensor.ethg$o[0].channel per 0
attr mutable ""
par UseCase.Sensor.ethg$o[0].channel enabledLineStyle "\"solid\""
par UseCase.Sensor.ethg$o[0].channel disabledLineStyle "\"dashed\""
par UseCase.Sensor.ethg$o[0].channel disabledIcon "\"status/cross\""
par UseCase.Sensor.ethg$o[0].channel length 10m
attr unit m
par UseCase.switchTSN.ethg$o[2].channel typename "\"inet.node.ethernet.Eth1G\""
par UseCase.switchTSN.ethg$o[2].channel disabled false
attr mutable ""
par UseCase.switchTSN.ethg$o[2].channel delay 5e-08s
attr mutable ""
attr unit s
par UseCase.switchTSN.ethg$o[2].channel datarate 1e+09bps
attr mutable ""
attr unit bps
par UseCase.switchTSN.ethg$o[2].channel ber 0
attr mutable ""
par UseCase.switchTSN.ethg$o[2].channel per 0
attr mutable ""
par UseCase.switchTSN.ethg$o[2].channel enabledLineStyle "\"solid\""
par UseCase.switchTSN.ethg$o[2].channel disabledLineStyle "\"dashed\""
par UseCase.switchTSN.ethg$o[2].channel disabledIcon "\"status/cross\""
par UseCase.switchTSN.ethg$o[2].channel length 10m
attr unit m
par UseCase.Actuator.ethg$o[0].channel typename "\"inet.node.ethernet.Eth1G\""
par UseCase.Actuator.ethg$o[0].channel disabled false
attr mutable ""
par UseCase.Actuator.ethg$o[0].channel delay 5e-08s
attr mutable ""
attr unit s
par UseCase.Actuator.ethg$o[0].channel datarate 1e+09bps
attr mutable ""
attr unit bps
par UseCase.Actuator.ethg$o[0].channel ber 0
attr mutable ""
par UseCase.Actuator.ethg$o[0].channel per 0
attr mutable ""
par UseCase.Actuator.ethg$o[0].channel enabledLineStyle "\"solid\""
par UseCase.Actuator.ethg$o[0].channel disabledLineStyle "\"dashed\""
par UseCase.Actuator.ethg$o[0].channel disabledIcon "\"status/cross\""
par UseCase.Actuator.ethg$o[0].channel length 10m
attr unit m
par UseCase.visualizer.sceneVisualizer[0] typename "\"inet.visualizer.canvas.scene.SceneCanvasVisualizer\""
par UseCase.visualizer.sceneVisualizer[0] visualizationTargetModule "\"^.^\""
par UseCase.visualizer.sceneVisualizer[0] visualizationSubjectModule "\"^.^\""
par UseCase.visualizer.sceneVisualizer[0] tags "\"\""
par UseCase.visualizer.sceneVisualizer[0] physicalEnvironmentModule "\"physicalEnvironment\""
par UseCase.visualizer.sceneVisualizer[0] networkNodeVisualizerModule "\"UseCase.visualizer.networkNodeVisualizer[0]\""
par UseCase.visualizer.sceneVisualizer[0] axisLength "nan m"
attr mutable ""
attr unit m
par UseCase.visualizer.sceneVisualizer[0] animationSpeed 0
par UseCase.visualizer.sceneVisualizer[0] sceneMinX "nan m"
attr unit m
par UseCase.visualizer.sceneVisualizer[0] sceneMinY "nan m"
attr unit m
par UseCase.visualizer.sceneVisualizer[0] sceneMinZ "nan m"
attr unit m
par UseCase.visualizer.sceneVisualizer[0] sceneMaxX "nan m"
attr unit m
par UseCase.visualizer.sceneVisualizer[0] sceneMaxY "nan m"
attr unit m
par UseCase.visualizer.sceneVisualizer[0] sceneMaxZ "nan m"
attr unit m
par UseCase.visualizer.sceneVisualizer[0] zIndex 0
par UseCase.visualizer.sceneVisualizer[0] viewAngle "\"x right y down z out\""
attr mutable ""
par UseCase.visualizer.sceneVisualizer[0] viewScale "\"1 1\""
attr mutable ""
par UseCase.visualizer.sceneVisualizer[0] viewTranslation "\"0 0\""
attr mutable ""
par UseCase.visualizer.sceneVisualizer[0] descriptionFigure "\"\""
par UseCase.visualizer.physicalEnvironmentVisualizer[0] typename "\"inet.visualizer.canvas.environment.PhysicalEnvironmentCanvasVisualizer\""
par UseCase.visualizer.physicalEnvironmentVisualizer[0] visualizationTargetModule "\"^.^\""
par UseCase.visualizer.physicalEnvironmentVisualizer[0] visualizationSubjectModule "\"^.^\""
par UseCase.visualizer.physicalEnvironmentVisualizer[0] tags "\"\""
par UseCase.visualizer.physicalEnvironmentVisualizer[0] physicalEnvironmentModule "\"physicalEnvironment\""
par UseCase.visualizer.physicalEnvironmentVisualizer[0] displayObjects true
par UseCase.visualizer.physicalEnvironmentVisualizer[0] zIndex 0
par UseCase.visualizer.networkNodeVisualizer[0] typename "\"inet.visualizer.canvas.scene.NetworkNodeCanvasVisualizer\""
par UseCase.visualizer.networkNodeVisualizer[0] visualizationTargetModule "\"^.^\""
par UseCase.visualizer.networkNodeVisualizer[0] visualizationSubjectModule "\"^.^\""
par UseCase.visualizer.networkNodeVisualizer[0] tags "\"\""
par UseCase.visualizer.networkNodeVisualizer[0] nodeFilter "\"*\""
attr mutable ""
par UseCase.visualizer.networkNodeVisualizer[0] annotationSpacing 4
par UseCase.visualizer.networkNodeVisualizer[0] placementPenalty 10
par UseCase.visualizer.networkNodeVisualizer[0] zIndex 0
par UseCase.visualizer.networkConnectionVisualizer[0] typename "\"inet.visualizer.canvas.scene.NetworkConnectionCanvasVisualizer\""
par UseCase.visualizer.networkConnectionVisualizer[0] visualizationTargetModule "\"^.^\""
par UseCase.visualizer.networkConnectionVisualizer[0] visualizationSubjectModule "\"^.^\""
par UseCase.visualizer.networkConnectionVisualizer[0] tags "\"\""
par UseCase.visualizer.networkConnectionVisualizer[0] displayNetworkConnections true
par UseCase.visualizer.networkConnectionVisualizer[0] nodeFilter "\"\""
attr mutable ""
par UseCase.visualizer.networkConnectionVisualizer[0] lineColor "\"black\""
par UseCase.visualizer.networkConnectionVisualizer[0] lineStyle "\"solid\""
par UseCase.visualizer.networkConnectionVisualizer[0] lineWidth 1
par UseCase.visualizer.networkConnectionVisualizer[0] zIndex 0
par UseCase.visualizer.mobilityVisualizer[0] typename "\"inet.visualizer.canvas.mobility.MobilityCanvasVisualizer\""
par UseCase.visualizer.mobilityVisualizer[0] visualizationTargetModule "\"^.^\""
par UseCase.visualizer.mobilityVisualizer[0] visualizationSubjectModule "\"^.^\""
par UseCase.visualizer.mobilityVisualizer[0] tags "\"\""
par UseCase.visualizer.mobilityVisualizer[0] networkNodeVisualizerModule "\"UseCase.visualizer.networkNodeVisualizer[0]\""
par UseCase.visualizer.mobilityVisualizer[0] displayMobility true
par UseCase.visualizer.mobilityVisualizer[0] animationSpeed 0
par UseCase.visualizer.mobilityVisualizer[0] moduleFilter "\"**.mobility\""
attr mutable ""
par UseCase.visualizer.mobilityVisualizer[0] displayPositions false
par UseCase.visualizer.mobilityVisualizer[0] positionCircleRadius 4
par UseCase.visualizer.mobilityVisualizer[0] positionCircleLineWidth 1
par UseCase.visualizer.mobilityVisualizer[0] positionCircleLineColor "\"dark\""
attr enum light,dark
par UseCase.visualizer.mobilityVisualizer[0] positionCircleFillColor "\"dark\""
attr enum light,dark
par UseCase.visualizer.mobilityVisualizer[0] displayOrientations false
par UseCase.visualizer.mobilityVisualizer[0] orientationPieRadius 32
par UseCase.visualizer.mobilityVisualizer[0] orientationPieSize 0.2
par UseCase.visualizer.mobilityVisualizer[0] orientationPieOpacity 0.25
par UseCase.visualizer.mobilityVisualizer[0] orientationLineColor "\"black\""
par UseCase.visualizer.mobilityVisualizer[0] orientationLineStyle "\"solid\""
par UseCase.visualizer.mobilityVisualizer[0] orientationLineWidth 1
par UseCase.visualizer.mobilityVisualizer[0] orientationFillColor "\"blue\""
par UseCase.visualizer.mobilityVisualizer[0] displayVelocities false
par UseCase.visualizer.mobilityVisualizer[0] velocityArrowScale 1
par UseCase.visualizer.mobilityVisualizer[0] velocityLineColor "\"black\""
par UseCase.visualizer.mobilityVisualizer[0] velocityLineStyle "\"solid\""
par UseCase.visualizer.mobilityVisualizer[0] velocityLineWidth 1
par UseCase.visualizer.mobilityVisualizer[0] displayMovementTrails false
par UseCase.visualizer.mobilityVisualizer[0] movementTrailLineColor "\"dark\""
attr enum light,dark
par UseCase.visualizer.mobilityVisualizer[0] movementTrailLineStyle "\"solid\""
par UseCase.visualizer.mobilityVisualizer[0] movementTrailLineWidth 1
par UseCase.visualizer.mobilityVisualizer[0] trailLength 100
par UseCase.visualizer.mobilityVisualizer[0] zIndex 0
par UseCase.visualizer.statisticVisualizer[0] typename "\"inet.visualizer.canvas.common.StatisticCanvasVisualizer\""
par UseCase.visualizer.statisticVisualizer[0] visualizationTargetModule "\"^.^\""
par UseCase.visualizer.statisticVisualizer[0] visualizationSubjectModule "\"^.^\""
par UseCase.visualizer.statisticVisualizer[0] tags "\"\""
par UseCase.visualizer.statisticVisualizer[0] networkNodeVisualizerModule "\"UseCase.visualizer.networkNodeVisualizer[0]\""
par UseCase.visualizer.statisticVisualizer[0] displayStatistics false
par UseCase.visualizer.statisticVisualizer[0] signalName "\"\""
par UseCase.visualizer.statisticVisualizer[0] statisticName "\"\""
par UseCase.visualizer.statisticVisualizer[0] statisticUnit "\"\""
par UseCase.visualizer.statisticVisualizer[0] statisticExpression "\"\""
par UseCase.visualizer.statisticVisualizer[0] sourceFilter "\"**\""
attr mutable ""
par UseCase.visualizer.statisticVisualizer[0] format "\"%n: %v %u\""
attr mutable ""
par UseCase.visualizer.statisticVisualizer[0] unit "\"\""
par UseCase.visualizer.statisticVisualizer[0] font "\"<default>\""
par UseCase.visualizer.statisticVisualizer[0] textColor "\"black\""
par UseCase.visualizer.statisticVisualizer[0] backgroundColor "\"white\""
par UseCase.visualizer.statisticVisualizer[0] opacity 1
par UseCase.visualizer.statisticVisualizer[0] placementHint "\"top\""
par UseCase.visualizer.statisticVisualizer[0] placementPriority 0
par UseCase.visualizer.statisticVisualizer[0] zIndex 10
par UseCase.visualizer.statisticVisualizer[0] propertyName "\"\""
par UseCase.visualizer.statisticVisualizer[0] propertyIndex "\"\""
par UseCase.visualizer.infoVisualizer[0] typename "\"inet.visualizer.canvas.common.InfoCanvasVisualizer\""
par UseCase.visualizer.infoVisualizer[0] visualizationTargetModule "\"^.^\""
par UseCase.visualizer.infoVisualizer[0] visualizationSubjectModule "\"^.^\""
par UseCase.visualizer.infoVisualizer[0] tags "\"\""
par UseCase.visualizer.infoVisualizer[0] networkNodeVisualizerModule "\"UseCase.visualizer.networkNodeVisualizer[0]\""
par UseCase.visualizer.infoVisualizer[0] displayInfos true
par UseCase.visualizer.infoVisualizer[0] modules "\"**.clock\""
attr mutable ""
par UseCase.visualizer.infoVisualizer[0] format "\"%t\""
attr mutable ""
par UseCase.visualizer.infoVisualizer[0] font "\"<default>\""
par UseCase.visualizer.infoVisualizer[0] textColor "\"black\""
par UseCase.visualizer.infoVisualizer[0] backgroundColor "\"white\""
par UseCase.visualizer.infoVisualizer[0] opacity 1
par UseCase.visualizer.infoVisualizer[0] placementHint "\"bottom\""
par UseCase.visualizer.infoVisualizer[0] placementPriority 0
par UseCase.visualizer.infoVisualizer[0] zIndex 10
par UseCase.visualizer.energyStorageVisualizer[0] typename "\"inet.visualizer.canvas.power.EnergyStorageCanvasVisualizer\""
par UseCase.visualizer.energyStorageVisualizer[0] visualizationTargetModule "\"^.^\""
par UseCase.visualizer.energyStorageVisualizer[0] visualizationSubjectModule "\"^.^\""
par UseCase.visualizer.energyStorageVisualizer[0] tags "\"\""
par UseCase.visualizer.energyStorageVisualizer[0] networkNodeVisualizerModule "\"UseCase.visualizer.networkNodeVisualizer[0]\""
par UseCase.visualizer.energyStorageVisualizer[0] displayEnergyStorages false
par UseCase.visualizer.energyStorageVisualizer[0] energyStorageFilter "\"**\""
par UseCase.visualizer.energyStorageVisualizer[0] color "\"green\""
par UseCase.visualizer.energyStorageVisualizer[0] width 8
par UseCase.visualizer.energyStorageVisualizer[0] height 24
par UseCase.visualizer.energyStorageVisualizer[0] spacing 2
par UseCase.visualizer.energyStorageVisualizer[0] placementHint "\"right\""
par UseCase.visualizer.energyStorageVisualizer[0] placementPriority 0
par UseCase.visualizer.energyStorageVisualizer[0] zIndex 10
par UseCase.visualizer.mediumVisualizer[0] typename "\"inet.visualizer.canvas.physicallayer.MediumCanvasVisualizer\""
par UseCase.visualizer.mediumVisualizer[0] visualizationTargetModule "\"^.^\""
par UseCase.visualizer.mediumVisualizer[0] visualizationSubjectModule "\"^.^\""
par UseCase.visualizer.mediumVisualizer[0] tags "\"\""
par UseCase.visualizer.mediumVisualizer[0] mediumModule "\"radioMedium\""
par UseCase.visualizer.mediumVisualizer[0] networkNodeVisualizerModule "\"UseCase.visualizer.networkNodeVisualizer[0]\""
par UseCase.visualizer.mediumVisualizer[0] nodeFilter "\"*\""
attr mutable ""
par UseCase.visualizer.mediumVisualizer[0] interfaceFilter "\"*\""
attr mutable ""
par UseCase.visualizer.mediumVisualizer[0] packetFilter "(omnetpp::cValueHolder)holder: \"*\""
attr mutable ""
par UseCase.visualizer.mediumVisualizer[0] displaySignals false
par UseCase.visualizer.mediumVisualizer[0] signalColor "\"dark\""
attr enum light,dark
par UseCase.visualizer.mediumVisualizer[0] signalPropagationAnimationSpeed "nan "
attr mutable ""
par UseCase.visualizer.mediumVisualizer[0] signalPropagationAnimationTime 1s
attr unit s
par UseCase.visualizer.mediumVisualizer[0] signalPropagationAdditionalTime 0s
attr unit s
par UseCase.visualizer.mediumVisualizer[0] signalTransmissionAnimationSpeed "nan "
attr mutable ""
par UseCase.visualizer.mediumVisualizer[0] signalTransmissionAnimationTime 1s
attr unit s
par UseCase.visualizer.mediumVisualizer[0] signalAnimationSpeedChangeTimeMode "\"realTime\""
attr enum realTime,animationTime,simulationTime
par UseCase.visualizer.mediumVisualizer[0] signalAnimationSpeedChangeTime 1s
attr unit s
par UseCase.visualizer.mediumVisualizer[0] displaySignalDepartures false
par UseCase.visualizer.mediumVisualizer[0] signalDepartureImage "\"misc/signal_departure.png\""
par UseCase.visualizer.mediumVisualizer[0] signalDeparturePlacementHint "\"topCenter\""
par UseCase.visualizer.mediumVisualizer[0] signalDeparturePlacementPriority 1
par UseCase.visualizer.mediumVisualizer[0] displaySignalArrivals false
par UseCase.visualizer.mediumVisualizer[0] signalArrivalImage "\"misc/signal_arrival.png\""
par UseCase.visualizer.mediumVisualizer[0] signalArrivalPlacementHint "\"topCenter\""
par UseCase.visualizer.mediumVisualizer[0] signalArrivalPlacementPriority -1
par UseCase.visualizer.mediumVisualizer[0] displayCommunicationRanges false
par UseCase.visualizer.mediumVisualizer[0] communicationRangeLineColor "\"blue\""
par UseCase.visualizer.mediumVisualizer[0] communicationRangeLineStyle "\"solid\""
par UseCase.visualizer.mediumVisualizer[0] communicationRangeLineWidth 1
par UseCase.visualizer.mediumVisualizer[0] displayInterferenceRanges false
par UseCase.visualizer.mediumVisualizer[0] interferenceRangeLineColor "\"gray\""
par UseCase.visualizer.mediumVisualizer[0] interferenceRangeLineStyle "\"solid\""
par UseCase.visualizer.mediumVisualizer[0] interferenceRangeLineWidth 1
par UseCase.visualizer.mediumVisualizer[0] autoPowerAxis true
par UseCase.visualizer.mediumVisualizer[0] signalMinPower "inf dBmW"
attr unit dBmW
par UseCase.visualizer.mediumVisualizer[0] signalMaxPower 0dBmW
attr unit dBmW
par UseCase.visualizer.mediumVisualizer[0] signalMinPowerDensity "inf dBmWpMHz"
attr unit dBmWpMHz
par UseCase.visualizer.mediumVisualizer[0] signalMaxPowerDensity "-inf dBmWpMHz"
attr unit dBmWpMHz
par UseCase.visualizer.mediumVisualizer[0] autoTimeAxis true
par UseCase.visualizer.mediumVisualizer[0] signalMinTime 0s
attr unit s
par UseCase.visualizer.mediumVisualizer[0] signalMaxTime 0s
attr unit s
par UseCase.visualizer.mediumVisualizer[0] autoFrequencyAxis true
par UseCase.visualizer.mediumVisualizer[0] signalMinFrequency "inf Hz"
attr unit Hz
par UseCase.visualizer.mediumVisualizer[0] signalMaxFrequency "-inf Hz"
attr unit Hz
par UseCase.visualizer.mediumVisualizer[0] displayMainPowerDensityMap false
par UseCase.visualizer.mediumVisualizer[0] mainPowerDensityMapPixmapDensity 1
par UseCase.visualizer.mediumVisualizer[0] mainPowerDensityMapMinX 0
par UseCase.visualizer.mediumVisualizer[0] mainPowerDensityMapMaxX "nan "
par UseCase.visualizer.mediumVisualizer[0] mainPowerDensityMapMinY 0
par UseCase.visualizer.mediumVisualizer[0] mainPowerDensityMapMaxY "nan "
par UseCase.visualizer.mediumVisualizer[0] mainPowerDensityMapZ 0
par UseCase.visualizer.mediumVisualizer[0] mainPowerDensityMapFigureXTickCount 3
par UseCase.visualizer.mediumVisualizer[0] mainPowerDensityMapFigureYTickCount 3
par UseCase.visualizer.mediumVisualizer[0] displayPowerDensityMaps false
par UseCase.visualizer.mediumVisualizer[0] powerDensityMapMode "\"auto\""
attr enum total,signal,auto
par UseCase.visualizer.mediumVisualizer[0] powerDensityMapPixelMode "\"mean\""
attr enum sample,partition,mean
par UseCase.visualizer.mediumVisualizer[0] powerDensityMapApproximationSize 10
par UseCase.visualizer.mediumVisualizer[0] powerDensityMapCenterFrequency "nan Hz"
attr mutable ""
attr unit Hz
par UseCase.visualizer.mediumVisualizer[0] powerDensityMapBandwidth 0Hz
attr mutable ""
attr unit Hz
par UseCase.visualizer.mediumVisualizer[0] powerDensityMapFigureWidth 200
par UseCase.visualizer.mediumVisualizer[0] powerDensityMapFigureHeight 120
par UseCase.visualizer.mediumVisualizer[0] powerDensityMapPixmapWidth 200
par UseCase.visualizer.mediumVisualizer[0] powerDensityMapPixmapHeight 120
par UseCase.visualizer.mediumVisualizer[0] powerDensityMapZ 0
par UseCase.visualizer.mediumVisualizer[0] powerDensityMapFigureXTickCount 3
par UseCase.visualizer.mediumVisualizer[0] powerDensityMapFigureYTickCount 3
par UseCase.visualizer.mediumVisualizer[0] displaySpectrums false
par UseCase.visualizer.mediumVisualizer[0] spectrumMode "\"auto\""
attr enum total,signal,auto
par UseCase.visualizer.mediumVisualizer[0] spectrumFigureWidth 200
par UseCase.visualizer.mediumVisualizer[0] spectrumFigureHeight 120
par UseCase.visualizer.mediumVisualizer[0] spectrumFigureXTickCount 3
par UseCase.visualizer.mediumVisualizer[0] spectrumFigureYTickCount 5
par UseCase.visualizer.mediumVisualizer[0] spectrumFigureInterpolationSize 5
par UseCase.visualizer.mediumVisualizer[0] spectrumPlacementHint "\"bottomCenter\""
par UseCase.visualizer.mediumVisualizer[0] spectrumPlacementPriority -1
par UseCase.visualizer.mediumVisualizer[0] displaySpectrograms false
par UseCase.visualizer.mediumVisualizer[0] spectrogramMode "\"auto\""
attr enum total,signal,auto
par UseCase.visualizer.mediumVisualizer[0] spectrogramPixelMode "\"mean\""
attr enum sample,partition,mean
par UseCase.visualizer.mediumVisualizer[0] spectrogramFigureWidth 200
par UseCase.visualizer.mediumVisualizer[0] spectrogramFigureHeight 120
par UseCase.visualizer.mediumVisualizer[0] spectrogramPixmapWidth 200
par UseCase.visualizer.mediumVisualizer[0] spectrogramPixmapHeight 120
par UseCase.visualizer.mediumVisualizer[0] spectrogramFigureXTickCount 3
par UseCase.visualizer.mediumVisualizer[0] spectrogramFigureYTickCount 5
par UseCase.visualizer.mediumVisualizer[0] spectrogramPlacementHint "\"bottomCenter\""
par UseCase.visualizer.mediumVisualizer[0] spectrogramPlacementPriority -1
par UseCase.visualizer.mediumVisualizer[0] zIndex 0
par UseCase.visualizer.mediumVisualizer[0] signalShape "\"ring\""
attr enum ring,sphere
par UseCase.visualizer.mediumVisualizer[0] signalOpacity 0.5
par UseCase.visualizer.mediumVisualizer[0] signalRingCount 20
par UseCase.visualizer.mediumVisualizer[0] signalRingSize 50m
attr unit m
par UseCase.visualizer.mediumVisualizer[0] signalFadingDistance 50m
attr unit m
par UseCase.visualizer.mediumVisualizer[0] signalFadingFactor 1.2
par UseCase.visualizer.mediumVisualizer[0] signalWaveCount 20
par UseCase.visualizer.mediumVisualizer[0] signalWaveLength 50m
attr unit m
par UseCase.visualizer.mediumVisualizer[0] signalWaveWidth 10m
attr unit m
par UseCase.visualizer.mediumVisualizer[0] signalWaveFadingAnimationSpeedFactor 1
par UseCase.visualizer.mediumVisualizer[0] displayCommunicationHeat false
par UseCase.visualizer.obstacleLossVisualizer[0] typename "\"inet.visualizer.canvas.physicallayer.TracingObstacleLossCanvasVisualizer\""
par UseCase.visualizer.obstacleLossVisualizer[0] visualizationTargetModule "\"^.^\""
par UseCase.visualizer.obstacleLossVisualizer[0] visualizationSubjectModule "\"^.^\""
par UseCase.visualizer.obstacleLossVisualizer[0] tags "\"\""
par UseCase.visualizer.obstacleLossVisualizer[0] displayIntersections false
par UseCase.visualizer.obstacleLossVisualizer[0] intersectionLineColor "\"red\""
par UseCase.visualizer.obstacleLossVisualizer[0] intersectionLineStyle "\"solid\""
par UseCase.visualizer.obstacleLossVisualizer[0] intersectionLineWidth 1
par UseCase.visualizer.obstacleLossVisualizer[0] displayFaceNormalVectors false
par UseCase.visualizer.obstacleLossVisualizer[0] faceNormalLineColor "\"grey\""
par UseCase.visualizer.obstacleLossVisualizer[0] faceNormalLineStyle "\"solid\""
par UseCase.visualizer.obstacleLossVisualizer[0] faceNormalLineWidth 1
par UseCase.visualizer.obstacleLossVisualizer[0] fadeOutMode "\"realTime\""
attr enum realTime,animationTime,simulationTime
par UseCase.visualizer.obstacleLossVisualizer[0] fadeOutTime 1s
attr unit s
par UseCase.visualizer.obstacleLossVisualizer[0] fadeOutAnimationSpeed 0
par UseCase.visualizer.obstacleLossVisualizer[0] zIndex 0
par UseCase.visualizer.packetDropVisualizer[0] typename "\"inet.visualizer.canvas.common.PacketDropCanvasVisualizer\""
par UseCase.visualizer.packetDropVisualizer[0] visualizationTargetModule "\"^.^\""
par UseCase.visualizer.packetDropVisualizer[0] visualizationSubjectModule "\"^.^\""
par UseCase.visualizer.packetDropVisualizer[0] tags "\"\""
par UseCase.visualizer.packetDropVisualizer[0] displayPacketDrops false
par UseCase.visualizer.packetDropVisualizer[0] nodeFilter "\"*\""
attr mutable ""
par UseCase.visualizer.packetDropVisualizer[0] interfaceFilter "\"*\""
attr mutable ""
par UseCase.visualizer.packetDropVisualizer[0] packetFilter "(omnetpp::cValueHolder)holder: \"*\""
attr mutable ""
par UseCase.visualizer.packetDropVisualizer[0] detailsFilter "\"*\""
attr mutable ""
par UseCase.visualizer.packetDropVisualizer[0] icon "\"msg/packet_s\""
par UseCase.visualizer.packetDropVisualizer[0] iconTintAmount 1
par UseCase.visualizer.packetDropVisualizer[0] iconTintColor "\"dark\""
par UseCase.visualizer.packetDropVisualizer[0] labelFormat "\"%n\""
attr mutable ""
par UseCase.visualizer.packetDropVisualizer[0] labelFont "\"<default>\""
par UseCase.visualizer.packetDropVisualizer[0] labelColor "\"black\""
par UseCase.visualizer.packetDropVisualizer[0] fadeOutMode "\"realTime\""
attr enum realTime,animationTime,simulationTime
par UseCase.visualizer.packetDropVisualizer[0] fadeOutTime 1s
attr unit s
par UseCase.visualizer.packetDropVisualizer[0] fadeOutAnimationSpeed 0
par UseCase.visualizer.packetDropVisualizer[0] zIndex 10
par UseCase.visualizer.packetDropVisualizer[0] dx 32
par UseCase.visualizer.packetDropVisualizer[0] dy 64
par UseCase.visualizer.queueVisualizer[0] typename "\"inet.visualizer.canvas.common.QueueCanvasVisualizer\""
par UseCase.visualizer.queueVisualizer[0] visualizationTargetModule "\"^.^\""
par UseCase.visualizer.queueVisualizer[0] visualizationSubjectModule "\"^.^\""
par UseCase.visualizer.queueVisualizer[0] tags "\"\""
par UseCase.visualizer.queueVisualizer[0] networkNodeVisualizerModule "\"UseCase.visualizer.networkNodeVisualizer[0]\""
par UseCase.visualizer.queueVisualizer[0] displayQueues false
par UseCase.visualizer.queueVisualizer[0] queueFilter "\"**\""
par UseCase.visualizer.queueVisualizer[0] color "\"blue\""
par UseCase.visualizer.queueVisualizer[0] width 8
par UseCase.visualizer.queueVisualizer[0] height 24
par UseCase.visualizer.queueVisualizer[0] spacing 2
par UseCase.visualizer.queueVisualizer[0] placementHint "\"right\""
par UseCase.visualizer.queueVisualizer[0] placementPriority 0
par UseCase.visualizer.queueVisualizer[0] zIndex 10
par UseCase.visualizer.gateScheduleVisualizer[0] typename "\"inet.visualizer.canvas.common.GateScheduleCanvasVisualizer\""
par UseCase.visualizer.gateScheduleVisualizer[0] visualizationTargetModule "\"^.^\""
par UseCase.visualizer.gateScheduleVisualizer[0] visualizationSubjectModule "\"^.^\""
par UseCase.visualizer.gateScheduleVisualizer[0] tags "\"\""
par UseCase.visualizer.gateScheduleVisualizer[0] networkNodeVisualizerModule "\"UseCase.visualizer.networkNodeVisualizer[0]\""
par UseCase.visualizer.gateScheduleVisualizer[0] displayGateSchedules false
par UseCase.visualizer.gateScheduleVisualizer[0] labelFormat "\"%i %D\""
par UseCase.visualizer.gateScheduleVisualizer[0] gateFilter "\"**\""
par UseCase.visualizer.gateScheduleVisualizer[0] width 100
par UseCase.visualizer.gateScheduleVisualizer[0] height 8
par UseCase.visualizer.gateScheduleVisualizer[0] spacing 2
par UseCase.visualizer.gateScheduleVisualizer[0] placementHint "\"right\""
par UseCase.visualizer.gateScheduleVisualizer[0] placementPriority 0
par UseCase.visualizer.gateScheduleVisualizer[0] displayDuration 0s
attr mutable ""
attr unit s
par UseCase.visualizer.gateScheduleVisualizer[0] currentTimePosition 50
par UseCase.visualizer.gateScheduleVisualizer[0] zIndex 10
par UseCase.visualizer.radioVisualizer[0] typename "\"inet.visualizer.canvas.physicallayer.RadioCanvasVisualizer\""
par UseCase.visualizer.radioVisualizer[0] visualizationTargetModule "\"^.^\""
par UseCase.visualizer.radioVisualizer[0] visualizationSubjectModule "\"^.^\""
par UseCase.visualizer.radioVisualizer[0] tags "\"\""
par UseCase.visualizer.radioVisualizer[0] networkNodeVisualizerModule "\"UseCase.visualizer.networkNodeVisualizer[0]\""
par UseCase.visualizer.radioVisualizer[0] displayRadios false
par UseCase.visualizer.radioVisualizer[0] displayRadioMode true
par UseCase.visualizer.radioVisualizer[0] displayReceptionState true
par UseCase.visualizer.radioVisualizer[0] displayTransmissionState true
par UseCase.visualizer.radioVisualizer[0] displayAntennaLobes false
par UseCase.visualizer.radioVisualizer[0] radioFilter "\"**\""
attr mutable ""
par UseCase.visualizer.radioVisualizer[0] radioModeImages "\"block/process_vs block/timer_vs block/wrx_vs block/wtx_vs block/wrxtx_vs block/cogwheel_vs\""
par UseCase.visualizer.radioVisualizer[0] receptionStateImages "\"- - misc/receiving misc/receiving\""
par UseCase.visualizer.radioVisualizer[0] transmissionStateImages "\"- - misc/transmitting\""
par UseCase.visualizer.radioVisualizer[0] width 16
par UseCase.visualizer.radioVisualizer[0] height 16
par UseCase.visualizer.radioVisualizer[0] placementHint "\"bottomRight\""
par UseCase.visualizer.radioVisualizer[0] placementPriority 0
par UseCase.visualizer.radioVisualizer[0] antennaLobeNormalize false
par UseCase.visualizer.radioVisualizer[0] antennaLobeRelativeLabels false
par UseCase.visualizer.radioVisualizer[0] antennaLobePlaneGlobal true
par UseCase.visualizer.radioVisualizer[0] antennaLobePlane "\"view\""
attr enum view,xy,xz,yz
par UseCase.visualizer.radioVisualizer[0] antennaLobeMode "\"logarithmic\""
attr enum logarithmic,linear
par UseCase.visualizer.radioVisualizer[0] antennaLobeLogarithmicBase 10
par UseCase.visualizer.radioVisualizer[0] antennaLobeLogarithmicScale 100
par UseCase.visualizer.radioVisualizer[0] antennaLobeRadius 100
par UseCase.visualizer.radioVisualizer[0] antennaLobeStep 10deg
attr unit deg
par UseCase.visualizer.radioVisualizer[0] antennaLobeOpacity 0.25
par UseCase.visualizer.radioVisualizer[0] antennaLobeLineSmooth true
par UseCase.visualizer.radioVisualizer[0] antennaLobeLineColor "\"black\""
par UseCase.visualizer.radioVisualizer[0] antennaLobeLineStyle "\"solid\""
par UseCase.visualizer.radioVisualizer[0] antennaLobeLineWidth 1
par UseCase.visualizer.radioVisualizer[0] antennaLobeFillColor "\"white\""
par UseCase.visualizer.radioVisualizer[0] zIndex 10
par UseCase.visualizer.physicalLinkVisualizer[0] typename "\"inet.visualizer.canvas.physicallayer.PhysicalLinkCanvasVisualizer\""
par UseCase.visualizer.physicalLinkVisualizer[0] visualizationTargetModule "\"^.^\""
par UseCase.visualizer.physicalLinkVisualizer[0] visualizationSubjectModule "\"^.^\""
par UseCase.visualizer.physicalLinkVisualizer[0] tags "\"\""
par UseCase.visualizer.physicalLinkVisualizer[0] displayLinks false
par UseCase.visualizer.physicalLinkVisualizer[0] activityLevel "\"service\""
attr enum service,peer,protocol
par UseCase.visualizer.physicalLinkVisualizer[0] nodeFilter "\"*\""
attr mutable ""
par UseCase.visualizer.physicalLinkVisualizer[0] interfaceFilter "\"*\""
attr mutable ""
par UseCase.visualizer.physicalLinkVisualizer[0] packetFilter "(omnetpp::cValueHolder)holder: \"*\""
attr mutable ""
par UseCase.visualizer.physicalLinkVisualizer[0] lineColor "\"olive\""
par UseCase.visualizer.physicalLinkVisualizer[0] lineStyle "\"dotted\""
par UseCase.visualizer.physicalLinkVisualizer[0] lineWidth 3
par UseCase.visualizer.physicalLinkVisualizer[0] lineShift 16
par UseCase.visualizer.physicalLinkVisualizer[0] lineShiftMode "\"normal\""
par UseCase.visualizer.physicalLinkVisualizer[0] lineContactSpacing 3
par UseCase.visualizer.physicalLinkVisualizer[0] lineContactMode "\"rectangular\""
attr enum circular,rectangular
par UseCase.visualizer.physicalLinkVisualizer[0] labelFormat "\"%n\""
par UseCase.visualizer.physicalLinkVisualizer[0] labelFont "\"<default>, 8px\""
par UseCase.visualizer.physicalLinkVisualizer[0] labelColor "\"olive\""
par UseCase.visualizer.physicalLinkVisualizer[0] fadeOutMode "\"realTime\""
attr enum realTime,animationTime,simulationTime
par UseCase.visualizer.physicalLinkVisualizer[0] fadeOutTime 1s
attr unit s
par UseCase.visualizer.physicalLinkVisualizer[0] fadeOutAnimationSpeed 0
par UseCase.visualizer.physicalLinkVisualizer[0] holdAnimationTime 0s
attr unit s
par UseCase.visualizer.physicalLinkVisualizer[0] zIndex 1
par UseCase.visualizer.interfaceTableVisualizer[0] typename "\"inet.visualizer.canvas.linklayer.InterfaceTableCanvasVisualizer\""
par UseCase.visualizer.interfaceTableVisualizer[0] visualizationTargetModule "\"^.^\""
par UseCase.visualizer.interfaceTableVisualizer[0] visualizationSubjectModule "\"^.^\""
par UseCase.visualizer.interfaceTableVisualizer[0] tags "\"\""
par UseCase.visualizer.interfaceTableVisualizer[0] networkNodeVisualizerModule "\"UseCase.visualizer.networkNodeVisualizer[0]\""
par UseCase.visualizer.interfaceTableVisualizer[0] displayInterfaceTables false
par UseCase.visualizer.interfaceTableVisualizer[0] displayWiredInterfacesAtConnections true
par UseCase.visualizer.interfaceTableVisualizer[0] displayBackground false
par UseCase.visualizer.interfaceTableVisualizer[0] nodeFilter "\"*\""
attr mutable ""
par UseCase.visualizer.interfaceTableVisualizer[0] interfaceFilter "\"not(lo*)\""
attr mutable ""
par UseCase.visualizer.interfaceTableVisualizer[0] format "\"%N %\\\\%a%/%l\""
attr mutable ""
par UseCase.visualizer.interfaceTableVisualizer[0] placementHint "\"top\""
par UseCase.visualizer.interfaceTableVisualizer[0] placementPriority 0
par UseCase.visualizer.interfaceTableVisualizer[0] font "\"<default>\""
par UseCase.visualizer.interfaceTableVisualizer[0] textColor "\"#005030\""
par UseCase.visualizer.interfaceTableVisualizer[0] backgroundColor "\"white\""
par UseCase.visualizer.interfaceTableVisualizer[0] opacity 1
par UseCase.visualizer.interfaceTableVisualizer[0] zIndex 10
par UseCase.visualizer.interfaceTableVisualizer[0] anchor "\"l\""
attr enum l,r,t
par UseCase.visualizer.dataLinkVisualizer[0] typename "\"inet.visualizer.canvas.linklayer.DataLinkCanvasVisualizer\""
par UseCase.visualizer.dataLinkVisualizer[0] visualizationTargetModule "\"^.^\""
par UseCase.visualizer.dataLinkVisualizer[0] visualizationSubjectModule "\"^.^\""
par UseCase.visualizer.dataLinkVisualizer[0] tags "\"\""
par UseCase.visualizer.dataLinkVisualizer[0] displayLinks false
par UseCase.visualizer.dataLinkVisualizer[0] activityLevel "\"service\""
attr enum service,peer,protocol
par UseCase.visualizer.dataLinkVisualizer[0] nodeFilter "\"*\""
attr mutable ""
par UseCase.visualizer.dataLinkVisualizer[0] interfaceFilter "\"*\""
attr mutable ""
par UseCase.visualizer.dataLinkVisualizer[0] packetFilter "(omnetpp::cValueHolder)holder: \"*\""
attr mutable ""
par UseCase.visualizer.dataLinkVisualizer[0] lineColor "\"darkcyan\""
par UseCase.visualizer.dataLinkVisualizer[0] lineStyle "\"solid\""
par UseCase.visualizer.dataLinkVisualizer[0] lineWidth 3
par UseCase.visualizer.dataLinkVisualizer[0] lineShift 16
par UseCase.visualizer.dataLinkVisualizer[0] lineShiftMode "\"normal\""
par UseCase.visualizer.dataLinkVisualizer[0] lineContactSpacing 3
par UseCase.visualizer.dataLinkVisualizer[0] lineContactMode "\"rectangular\""
attr enum circular,rectangular
par UseCase.visualizer.dataLinkVisualizer[0] labelFormat "\"%n\""
par UseCase.visualizer.dataLinkVisualizer[0] labelFont "\"<default>, 8px\""
par UseCase.visualizer.dataLinkVisualizer[0] labelColor "\"darkcyan\""
par UseCase.visualizer.dataLinkVisualizer[0] fadeOutMode "\"realTime\""
attr enum realTime,animationTime,simulationTime
par UseCase.visualizer.dataLinkVisualizer[0] fadeOutTime 1s
attr unit s
par UseCase.visualizer.dataLinkVisualizer[0] fadeOutAnimationSpeed 0
par UseCase.visualizer.dataLinkVisualizer[0] holdAnimationTime 0s
attr unit s
par UseCase.visualizer.dataLinkVisualizer[0] zIndex 2
par UseCase.visualizer.linkBreakVisualizer[0] typename "\"inet.visualizer.canvas.linklayer.LinkBreakCanvasVisualizer\""
par UseCase.visualizer.linkBreakVisualizer[0] visualizationTargetModule "\"^.^\""
par UseCase.visualizer.linkBreakVisualizer[0] visualizationSubjectModule "\"^.^\""
par UseCase.visualizer.linkBreakVisualizer[0] tags "\"\""
par UseCase.visualizer.linkBreakVisualizer[0] displayLinkBreaks false
par UseCase.visualizer.linkBreakVisualizer[0] nodeFilter "\"*\""
attr mutable ""
par UseCase.visualizer.linkBreakVisualizer[0] interfaceFilter "\"*\""
attr mutable ""
par UseCase.visualizer.linkBreakVisualizer[0] packetFilter "(omnetpp::cValueHolder)holder: \"*\""
attr mutable ""
par UseCase.visualizer.linkBreakVisualizer[0] icon "\"status/stop\""
par UseCase.visualizer.linkBreakVisualizer[0] iconTintAmount 0
par UseCase.visualizer.linkBreakVisualizer[0] iconTintColor "\"\""
par UseCase.visualizer.linkBreakVisualizer[0] fadeOutMode "\"realTime\""
attr enum realTime,animationTime,simulationTime
par UseCase.visualizer.linkBreakVisualizer[0] fadeOutTime 1s
attr unit s
par UseCase.visualizer.linkBreakVisualizer[0] fadeOutAnimationSpeed 0
par UseCase.visualizer.linkBreakVisualizer[0] zIndex 2
par UseCase.visualizer.ieee80211Visualizer[0] typename "\"inet.visualizer.canvas.linklayer.Ieee80211CanvasVisualizer\""
par UseCase.visualizer.ieee80211Visualizer[0] visualizationTargetModule "\"^.^\""
par UseCase.visualizer.ieee80211Visualizer[0] visualizationSubjectModule "\"^.^\""
par UseCase.visualizer.ieee80211Visualizer[0] tags "\"\""
par UseCase.visualizer.ieee80211Visualizer[0] networkNodeVisualizerModule "\"UseCase.visualizer.networkNodeVisualizer[0]\""
par UseCase.visualizer.ieee80211Visualizer[0] displayAssociations false
par UseCase.visualizer.ieee80211Visualizer[0] nodeFilter "\"*\""
attr mutable ""
par UseCase.visualizer.ieee80211Visualizer[0] interfaceFilter "\"*\""
attr mutable ""
par UseCase.visualizer.ieee80211Visualizer[0] minPower -85dBm
attr unit dBm
par UseCase.visualizer.ieee80211Visualizer[0] maxPower -50dBm
attr unit dBm
par UseCase.visualizer.ieee80211Visualizer[0] icons "\"misc/signal_power_0 misc/signal_power_1 misc/signal_power_2 misc/signal_power_3\""
par UseCase.visualizer.ieee80211Visualizer[0] iconColor "\"dark\""
attr enum light,dark
par UseCase.visualizer.ieee80211Visualizer[0] labelFont "\"<default>\""
par UseCase.visualizer.ieee80211Visualizer[0] labelColor "\"black\""
par UseCase.visualizer.ieee80211Visualizer[0] placementHint "\"top\""
par UseCase.visualizer.ieee80211Visualizer[0] placementPriority 0
par UseCase.visualizer.ieee80211Visualizer[0] zIndex 2
par UseCase.visualizer.networkRouteVisualizer[0] typename "\"inet.visualizer.canvas.networklayer.NetworkRouteCanvasVisualizer\""
par UseCase.visualizer.networkRouteVisualizer[0] visualizationTargetModule "\"^.^\""
par UseCase.visualizer.networkRouteVisualizer[0] visualizationSubjectModule "\"^.^\""
par UseCase.visualizer.networkRouteVisualizer[0] tags "\"\""
par UseCase.visualizer.networkRouteVisualizer[0] displayRoutes false
par UseCase.visualizer.networkRouteVisualizer[0] startPathSignal "\"packetReceivedFromUpper\""
par UseCase.visualizer.networkRouteVisualizer[0] extendPathSignal "\"packetReceivedFromLower\""
par UseCase.visualizer.networkRouteVisualizer[0] endPathSignal "\"packetSentToUpper\""
par UseCase.visualizer.networkRouteVisualizer[0] nodeFilter "\"*\""
attr mutable ""
par UseCase.visualizer.networkRouteVisualizer[0] packetFilter "(omnetpp::cValueHolder)holder: \"*\""
attr mutable ""
par UseCase.visualizer.networkRouteVisualizer[0] lineColor "\"dark\""
attr enum light,dark
par UseCase.visualizer.networkRouteVisualizer[0] lineStyle "\"solid\""
par UseCase.visualizer.networkRouteVisualizer[0] lineWidth 3
par UseCase.visualizer.networkRouteVisualizer[0] lineSmooth false
par UseCase.visualizer.networkRouteVisualizer[0] lineShift 16
par UseCase.visualizer.networkRouteVisualizer[0] lineShiftMode "\"normal\""
par UseCase.visualizer.networkRouteVisualizer[0] lineContactSpacing 3
par UseCase.visualizer.networkRouteVisualizer[0] lineContactMode "\"rectangular\""
attr enum circular,rectangular
par UseCase.visualizer.networkRouteVisualizer[0] labelFormat "\"%n\""
par UseCase.visualizer.networkRouteVisualizer[0] labelFont "\"<default>, 8px\""
par UseCase.visualizer.networkRouteVisualizer[0] labelColor "\"\""
par UseCase.visualizer.networkRouteVisualizer[0] fadeOutMode "\"realTime\""
attr enum realTime,animationTime,simulationTime
par UseCase.visualizer.networkRouteVisualizer[0] fadeOutTime 1s
attr unit s
par UseCase.visualizer.networkRouteVisualizer[0] fadeOutAnimationSpeed 0
par UseCase.visualizer.networkRouteVisualizer[0] zIndex 3
par UseCase.visualizer.routingTableVisualizer[0] typename "\"inet.visualizer.canvas.networklayer.RoutingTableCanvasVisualizer\""
par UseCase.visualizer.routingTableVisualizer[0] visualizationTargetModule "\"^.^\""
par UseCase.visualizer.routingTableVisualizer[0] visualizationSubjectModule "\"^.^\""
par UseCase.visualizer.routingTableVisualizer[0] tags "\"\""
par UseCase.visualizer.routingTableVisualizer[0] displayRoutingTables false
par UseCase.visualizer.routingTableVisualizer[0] displayRoutesIndividually true
par UseCase.visualizer.routingTableVisualizer[0] displayLabels true
par UseCase.visualizer.routingTableVisualizer[0] destinationFilter "\"*\""
attr mutable ""
par UseCase.visualizer.routingTableVisualizer[0] nodeFilter "\"*\""
attr mutable ""
par UseCase.visualizer.routingTableVisualizer[0] multicastSourceNodeFilter "\"*\""
attr mutable ""
par UseCase.visualizer.routingTableVisualizer[0] multicastSourceAddressFilter "\"*\""
attr mutable ""
par UseCase.visualizer.routingTableVisualizer[0] multicastGroupFilter "\"*\""
attr mutable ""
par UseCase.visualizer.routingTableVisualizer[0] lineColor "\"black\""
par UseCase.visualizer.routingTableVisualizer[0] lineStyle "\"solid\""
par UseCase.visualizer.routingTableVisualizer[0] lineWidth 2
par UseCase.visualizer.routingTableVisualizer[0] lineShift 16
par UseCase.visualizer.routingTableVisualizer[0] lineShiftMode "\"normal\""
par UseCase.visualizer.routingTableVisualizer[0] lineContactSpacing 3
par UseCase.visualizer.routingTableVisualizer[0] lineContactMode "\"rectangular\""
attr enum circular,rectangular
par UseCase.visualizer.routingTableVisualizer[0] labelFormat "\"%d/%m -> %g (%n)\""
attr mutable ""
par UseCase.visualizer.routingTableVisualizer[0] labelFont "\"<default>, 8px\""
par UseCase.visualizer.routingTableVisualizer[0] labelColor "\"black\""
par UseCase.visualizer.routingTableVisualizer[0] zIndex 0
par UseCase.visualizer.transportRouteVisualizer[0] typename "\"inet.visualizer.canvas.transportlayer.TransportRouteCanvasVisualizer\""
par UseCase.visualizer.transportRouteVisualizer[0] visualizationTargetModule "\"^.^\""
par UseCase.visualizer.transportRouteVisualizer[0] visualizationSubjectModule "\"^.^\""
par UseCase.visualizer.transportRouteVisualizer[0] tags "\"\""
par UseCase.visualizer.transportRouteVisualizer[0] displayRoutes false
par UseCase.visualizer.transportRouteVisualizer[0] startPathSignal "\"packetReceivedFromUpper\""
par UseCase.visualizer.transportRouteVisualizer[0] extendPathSignal "\"packetReceivedFromLower\""
par UseCase.visualizer.transportRouteVisualizer[0] endPathSignal "\"packetSentToUpper\""
par UseCase.visualizer.transportRouteVisualizer[0] nodeFilter "\"*\""
attr mutable ""
par UseCase.visualizer.transportRouteVisualizer[0] packetFilter "(omnetpp::cValueHolder)holder: \"*\""
attr mutable ""
par UseCase.visualizer.transportRouteVisualizer[0] lineColor "\"dark\""
attr enum light,dark
par UseCase.visualizer.transportRouteVisualizer[0] lineStyle "\"solid\""
par UseCase.visualizer.transportRouteVisualizer[0] lineWidth 3
par UseCase.visualizer.transportRouteVisualizer[0] lineSmooth false
par UseCase.visualizer.transportRouteVisualizer[0] lineShift 16
par UseCase.visualizer.transportRouteVisualizer[0] lineShiftMode "\"normal\""
par UseCase.visualizer.transportRouteVisualizer[0] lineContactSpacing 3
par UseCase.visualizer.transportRouteVisualizer[0] lineContactMode "\"rectangular\""
attr enum circular,rectangular
par UseCase.visualizer.transportRouteVisualizer[0] labelFormat "\"%n\""
par UseCase.visualizer.transportRouteVisualizer[0] labelFont "\"<default>, 8px\""
par UseCase.visualizer.transportRouteVisualizer[0] labelColor "\"\""
par UseCase.visualizer.transportRouteVisualizer[0] fadeOutMode "\"realTime\""
attr enum realTime,animationTime,simulationTime
par UseCase.visualizer.transportRouteVisualizer[0] fadeOutTime 1s
attr unit s
par UseCase.visualizer.transportRouteVisualizer[0] fadeOutAnimationSpeed 0
par UseCase.visualizer.transportRouteVisualizer[0] zIndex 4
par UseCase.visualizer.transportConnectionVisualizer[0] typename "\"inet.visualizer.canvas.transportlayer.TransportConnectionCanvasVisualizer\""
par UseCase.visualizer.transportConnectionVisualizer[0] visualizationTargetModule "\"^.^\""
par UseCase.visualizer.transportConnectionVisualizer[0] visualizationSubjectModule "\"^.^\""
par UseCase.visualizer.transportConnectionVisualizer[0] tags "\"\""
par UseCase.visualizer.transportConnectionVisualizer[0] networkNodeVisualizerModule "\"UseCase.visualizer.networkNodeVisualizer[0]\""
par UseCase.visualizer.transportConnectionVisualizer[0] displayTransportConnections false
par UseCase.visualizer.transportConnectionVisualizer[0] sourceNodeFilter "\"*\""
attr mutable ""
par UseCase.visualizer.transportConnectionVisualizer[0] sourcePortFilter "\"*\""
attr mutable ""
par UseCase.visualizer.transportConnectionVisualizer[0] destinationNodeFilter "\"*\""
attr mutable ""
par UseCase.visualizer.transportConnectionVisualizer[0] destinationPortFilter "\"*\""
attr mutable ""
par UseCase.visualizer.transportConnectionVisualizer[0] icon "\"misc/marker_s\""
par UseCase.visualizer.transportConnectionVisualizer[0] iconColor "\"dark\""
attr enum light,dark
par UseCase.visualizer.transportConnectionVisualizer[0] labelFont "\"<default>\""
par UseCase.visualizer.transportConnectionVisualizer[0] labelColor "\"black\""
par UseCase.visualizer.transportConnectionVisualizer[0] placementHint "\"top\""
par UseCase.visualizer.transportConnectionVisualizer[0] placementPriority 0
par UseCase.visualizer.transportConnectionVisualizer[0] zIndex 4
par UseCase.visualizer.failureProtectionConfigurationVisualizer[0] typename "\"inet.visualizer.canvas.configurator.FailureProtectionConfigurationCanvasVisualizer\""
par UseCase.visualizer.failureProtectionConfigurationVisualizer[0] visualizationTargetModule "\"^.^\""
par UseCase.visualizer.failureProtectionConfigurationVisualizer[0] visualizationSubjectModule "\"^.^\""
par UseCase.visualizer.failureProtectionConfigurationVisualizer[0] tags "\"\""
par UseCase.visualizer.failureProtectionConfigurationVisualizer[0] displayTrees false
par UseCase.visualizer.failureProtectionConfigurationVisualizer[0] lineColor "\"dark\""
attr enum light,dark
par UseCase.visualizer.failureProtectionConfigurationVisualizer[0] lineStyle "\"solid\""
par UseCase.visualizer.failureProtectionConfigurationVisualizer[0] lineWidth 3
par UseCase.visualizer.failureProtectionConfigurationVisualizer[0] lineSmooth false
par UseCase.visualizer.failureProtectionConfigurationVisualizer[0] lineShift 16
par UseCase.visualizer.failureProtectionConfigurationVisualizer[0] lineShiftMode "\"normal\""
par UseCase.visualizer.failureProtectionConfigurationVisualizer[0] lineContactSpacing 3
par UseCase.visualizer.failureProtectionConfigurationVisualizer[0] lineContactMode "\"rectangular\""
attr enum circular,rectangular
par UseCase.visualizer.failureProtectionConfigurationVisualizer[0] failureProtectionConfiguratorModule "\"failureProtectionConfigurator\""
par UseCase.visualizer.failureProtectionConfigurationVisualizer[0] streamFilter "\"*\""
par UseCase.visualizer.failureProtectionConfigurationVisualizer[0] zIndex 3
par UseCase.visualizer.streamRedundancyConfigurationVisualizer[0] typename "\"inet.visualizer.canvas.configurator.StreamRedundancyConfigurationCanvasVisualizer\""
par UseCase.visualizer.streamRedundancyConfigurationVisualizer[0] visualizationTargetModule "\"^.^\""
par UseCase.visualizer.streamRedundancyConfigurationVisualizer[0] visualizationSubjectModule "\"^.^\""
par UseCase.visualizer.streamRedundancyConfigurationVisualizer[0] tags "\"\""
par UseCase.visualizer.streamRedundancyConfigurationVisualizer[0] displayTrees false
par UseCase.visualizer.streamRedundancyConfigurationVisualizer[0] lineColor "\"dark\""
attr enum light,dark
par UseCase.visualizer.streamRedundancyConfigurationVisualizer[0] lineStyle "\"solid\""
par UseCase.visualizer.streamRedundancyConfigurationVisualizer[0] lineWidth 3
par UseCase.visualizer.streamRedundancyConfigurationVisualizer[0] lineSmooth false
par UseCase.visualizer.streamRedundancyConfigurationVisualizer[0] lineShift 16
par UseCase.visualizer.streamRedundancyConfigurationVisualizer[0] lineShiftMode "\"normal\""
par UseCase.visualizer.streamRedundancyConfigurationVisualizer[0] lineContactSpacing 3
par UseCase.visualizer.streamRedundancyConfigurationVisualizer[0] lineContactMode "\"rectangular\""
attr enum circular,rectangular
par UseCase.visualizer.streamRedundancyConfigurationVisualizer[0] streamRedundancyConfiguratorModule "\"streamRedundancyConfigurator\""
par UseCase.visualizer.streamRedundancyConfigurationVisualizer[0] streamFilter "\"*\""
par UseCase.visualizer.streamRedundancyConfigurationVisualizer[0] zIndex 3
par UseCase.visualizer.channelVisualizer[0] typename "\"inet.visualizer.canvas.physicallayer.ChannelCanvasVisualizer\""
par UseCase.visualizer.channelVisualizer[0] visualizationTargetModule "\"^.^\""
par UseCase.visualizer.channelVisualizer[0] visualizationSubjectModule "\"^.^\""
par UseCase.visualizer.channelVisualizer[0] tags "\"\""
par UseCase.visualizer.channelVisualizer[0] displayChannelActivity false
par UseCase.visualizer.channelVisualizer[0] nodeFilter "\"*\""
attr mutable ""
par UseCase.visualizer.channelVisualizer[0] packetFilter "(omnetpp::cValueHolder)holder: \"*\""
attr mutable ""
par UseCase.visualizer.channelVisualizer[0] lineColor "\"blue\""
par UseCase.visualizer.channelVisualizer[0] lineStyle "\"solid\""
par UseCase.visualizer.channelVisualizer[0] lineWidth 3
par UseCase.visualizer.channelVisualizer[0] lineShift 16
par UseCase.visualizer.channelVisualizer[0] lineShiftMode "\"normal\""
par UseCase.visualizer.channelVisualizer[0] lineContactSpacing 3
par UseCase.visualizer.channelVisualizer[0] lineContactMode "\"rectangular\""
attr enum circular,rectangular
par UseCase.visualizer.channelVisualizer[0] labelFormat "\"%n\""
par UseCase.visualizer.channelVisualizer[0] labelFont "\"<default>, 8px\""
par UseCase.visualizer.channelVisualizer[0] labelColor "\"blue\""
par UseCase.visualizer.channelVisualizer[0] fadeOutMode "\"realTime\""
attr enum realTime,animationTime,simulationTime
par UseCase.visualizer.channelVisualizer[0] fadeOutTime 1s
attr unit s
par UseCase.visualizer.channelVisualizer[0] fadeOutAnimationSpeed 0
par UseCase.visualizer.channelVisualizer[0] holdAnimationTime 0s
attr unit s
par UseCase.visualizer.channelVisualizer[0] zIndex 1
par UseCase.visualizer typename "\"inet.visualizer.canvas.integrated.IntegratedMultiCanvasVisualizer\""
par UseCase.visualizer numSceneVisualizers 1
par UseCase.visualizer numPhysicalEnvironmentVisualizers 1
par UseCase.visualizer numNetworkNodeVisualizers 1
par UseCase.visualizer numNetworkConnectionVisualizers 1
par UseCase.visualizer numMobilityVisualizers 1
par UseCase.visualizer numStatisticVisualizers 1
par UseCase.visualizer numInfoVisualizers 1
par UseCase.visualizer numEnergyStorageVisualizers 1
par UseCase.visualizer numMediumVisualizers 1
par UseCase.visualizer numObstacleLossVisualizers 1
par UseCase.visualizer numPacketDropVisualizers 1
par UseCase.visualizer numQueueVisualizers 1
par UseCase.visualizer numGateScheduleVisualizers 1
par UseCase.visualizer numRadioVisualizers 1
par UseCase.visualizer numPhysicalLinkVisualizers 1
par UseCase.visualizer numInterfaceTableVisualizers 1
par UseCase.visualizer numDataLinkVisualizers 1
par UseCase.visualizer numLinkBreakVisualizers 1
par UseCase.visualizer numIeee80211Visualizers 1
par UseCase.visualizer numNetworkRouteVisualizers 1
par UseCase.visualizer numRoutingTableVisualizers 1
par UseCase.visualizer numTransportRouteVisualizers 1
par UseCase.visualizer numTransportConnectionVisualizers 1
par UseCase.visualizer numFailureProtectionConfigurationVisualizers 1
par UseCase.visualizer numStreamRedundancyConfigurationVisualizers 1
par UseCase.visualizer numChannelVisualizers 1
par UseCase.configurator typename "\"inet.networklayer.configurator.ipv4.Ipv4NetworkConfigurator\""
par UseCase.configurator minLinkWeight 0.001
par UseCase.configurator configureIsolatedNetworksSeparatly false
par UseCase.configurator config "<config>...</config> at content:1"
par UseCase.configurator assignAddresses true
par UseCase.configurator assignUniqueAddresses true
par UseCase.configurator assignDisjunctSubnetAddresses true
par UseCase.configurator addStaticRoutes true
par UseCase.configurator addDefaultRoutes true
par UseCase.configurator addSubnetRoutes true
par UseCase.configurator addDirectRoutes true
par UseCase.configurator optimizeRoutes true
par UseCase.configurator updateRoutes false
par UseCase.configurator dumpTopology false
par UseCase.configurator dumpLinks false
par UseCase.configurator dumpAddresses false
par UseCase.configurator dumpRoutes false
par UseCase.configurator dumpConfig "\"\""
par UseCase.channelControl typename "\"simu5g.world.radio.LteChannelControl\""
par UseCase.channelControl coreDebug false
par UseCase.channelControl pMax 20mW
attr unit mW
par UseCase.channelControl sat -110dBm
attr unit dBm
par UseCase.channelControl alpha 2
par UseCase.channelControl carrierFrequency 2.4e+09Hz
attr unit Hz
par UseCase.channelControl numChannels 1
par UseCase.channelControl propagationModel "\"FreeSpaceModel\""
attr enum FreeSpaceModel,TwoRayGroundModel,RiceModel,RayleighModel,NakagamiModel,LogNormalShadowingModel
par UseCase.binder typename "\"src.common.binder.BinderTSN5G\""
par UseCase.binder blerShift 5
par UseCase.binder maxDataRatePerRb 1.16Mbps
attr unit Mbps
par UseCase.binder printTrafficGeneratorConfig false
par UseCase.carrierAggregation.componentCarrier[0] typename "\"simu5g.common.carrierAggregation.ComponentCarrier\""
par UseCase.carrierAggregation.componentCarrier[0] carrierFrequency 2GHz
attr unit GHz
par UseCase.carrierAggregation.componentCarrier[0] numBands 200
par UseCase.carrierAggregation.componentCarrier[0] numerologyIndex 1
par UseCase.carrierAggregation.componentCarrier[0] useTdd true
par UseCase.carrierAggregation.componentCarrier[0] tddNumSymbolsDl 7
par UseCase.carrierAggregation.componentCarrier[0] tddNumSymbolsUl 7
par UseCase.carrierAggregation typename "\"simu5g.common.carrierAggregation.CarrierAggregation\""
par UseCase.carrierAggregation numComponentCarriers 1
par UseCase.upf.ethg$i[0].channel typename "\"ned.IdealChannel\""
par UseCase.upf.eth[0].phys$o.channel typename "\"ned.IdealChannel\""
par UseCase.upf.gtp_user.pppGate.channel typename "\"ned.IdealChannel\""
par UseCase.upf.clock typename "\"inet.clock.model.IdealClock\""
par UseCase.upf.clock displayStringTextFormat "\"%t\""
par UseCase.upf.clock referenceClock "\"switchTSN.clock\""
par UseCase.upf.clock emitClockTimeInterval 0s
attr unit s
par UseCase.upf.interfaceTable typename "\"inet.networklayer.common.InterfaceTable\""
par UseCase.upf.interfaceTable displayAddresses false
par UseCase.upf.cb typename "\"inet.common.MessageDispatcher\""
par UseCase.upf.cb displayStringTextFormat "\"processed %p pk (%l)\""
par UseCase.upf.cb forwardServiceRegistration true
par UseCase.upf.cb forwardProtocolRegistration true
par UseCase.upf.bl typename "\"inet.common.MessageDispatcher\""
par UseCase.upf.bl displayStringTextFormat "\"processed %p pk (%l)\""
par UseCase.upf.bl forwardServiceRegistration true
par UseCase.upf.bl forwardProtocolRegistration true
par UseCase.upf.ethernet typename "\"inet.linklayer.ethernet.basic.EthernetEncapsulation\""
par UseCase.upf.ethernet registerProtocol true
par UseCase.upf.ethernet interfaceTableModule "\"UseCase.upf.interfaceTable\""
par UseCase.upf.ethernet fcsMode "\"declared\""
attr enum declared,computed
par UseCase.upf.ethernet stopOperationExtraTime -1s
attr unit s
par UseCase.upf.ethernet stopOperationTimeout 2s
attr unit s
scalar UseCase.upf.ethernet pauseSent:count 0
attr recordingmode count
attr title "pause sent, count"
scalar UseCase.upf.ethernet pauseSent:sum 0
attr recordingmode sum
attr title "pause sent, sum"
scalar UseCase.upf.ethernet decapPk:count 3598
attr interpolationmode none
attr recordingmode count
attr source decapPk
attr title "packets decapsulated, count"
scalar UseCase.upf.ethernet decapPk:sum(packetBytes) 443752
attr interpolationmode none
attr recordingmode sum(packetBytes)
attr source decapPk
attr title "packets decapsulated, sum(packetBytes)"
scalar UseCase.upf.ethernet encapPk:count 201
attr interpolationmode none
attr recordingmode count
attr source encapPk
attr title "packets encapsulated, count"
scalar UseCase.upf.ethernet encapPk:sum(packetBytes) 23718
attr interpolationmode none
attr recordingmode sum(packetBytes)
attr source encapPk
attr title "packets encapsulated, sum(packetBytes)"
par UseCase.upf.li typename "\"inet.common.MessageDispatcher\""
par UseCase.upf.li displayStringTextFormat "\"processed %p pk (%l)\""
par UseCase.upf.li forwardServiceRegistration true
par UseCase.upf.li forwardProtocolRegistration true
par UseCase.upf.lo[0].upperLayerIn.channel typename "\"ned.IdealChannel\""
par UseCase.upf.lo[0].lo.upperLayerOut.channel typename "\"ned.IdealChannel\""
par UseCase.upf.lo[0].lo typename "\"inet.linklayer.loopback.Loopback\""
par UseCase.upf.lo[0].lo interfaceTableModule "\"UseCase.upf.interfaceTable\""
par UseCase.upf.lo[0].lo mtu 4470B
attr unit B
scalar UseCase.upf.lo[0].lo rcvdPkFromHl:count 0
attr interpolationmode none
attr recordingmode count
attr source packetReceivedFromUpper
attr title "packets received from higher layer, count"
scalar UseCase.upf.lo[0].lo rcvdPkFromHl:sum(packetBytes) 0
attr interpolationmode none
attr recordingmode sum(packetBytes)
attr source packetReceivedFromUpper
attr title "packets received from higher layer, sum(packetBytes)"
scalar UseCase.upf.lo[0].lo passedUpPk:count 0
attr interpolationmode none
attr recordingmode count
attr source packetSentToUpper
attr title "packets passed to higher layer, count"
scalar UseCase.upf.lo[0].lo passedUpPk:sum(packetBytes) 0
attr interpolationmode none
attr recordingmode sum(packetBytes)
attr source packetSentToUpper
attr title "packets passed to higher layer, sum(packetBytes)"
par UseCase.upf.lo[0] typename "\"inet.linklayer.loopback.LoopbackInterface\""
par UseCase.upf.lo[0] displayStringTextFormat "\"%a (%i)\\n%m\""
par UseCase.upf.lo[0] recordPcap false
par UseCase.upf.lo[0] numPcapRecorders 0
par UseCase.upf.lo[0] interfaceTableModule "\"UseCase.upf.interfaceTable\""
scalar UseCase.upf.lo[0] packetDropInterfaceDown:count 0
attr interpolationmode none
attr recordingmode count
attr source packetDropReasonIsInterfaceDown(packetDropped)
attr title "packet drops: interface down, count"
scalar UseCase.upf.lo[0] packetDropInterfaceDown:sum(packetBytes) 0
attr interpolationmode none
attr recordingmode sum(packetBytes)
attr source packetDropReasonIsInterfaceDown(packetDropped)
attr title "packet drops: interface down, sum(packetBytes)"
scalar UseCase.upf.lo[0] packetDropNoCarrier:count 0
attr interpolationmode none
attr recordingmode count
attr source packetDropReasonIsNoCarrier(packetDropped)
attr title "packet drops: no carrier, count"
scalar UseCase.upf.lo[0] packetDropNoCarrier:sum(packetBytes) 0
attr interpolationmode none
attr recordingmode sum(packetBytes)
attr source packetDropReasonIsNoCarrier(packetDropped)
attr title "packet drops: no carrier, sum(packetBytes)"
par UseCase.upf.eth[0].mac.phys$o.channel typename "\"ned.IdealChannel\""
par UseCase.upf.eth[0].phys$i.channel typename "\"ned.IdealChannel\""
par UseCase.upf.eth[0].upperLayerIn.channel typename "\"ned.IdealChannel\""
par UseCase.upf.eth[0].mac.upperLayerOut.channel typename "\"ned.IdealChannel\""
par UseCase.upf.eth[0].queue typename "\"inet.linklayer.ethernet.common.EthernetQueue\""
par UseCase.upf.eth[0].queue displayStringTextFormat "\"contains %p pk (%l) pushed %u\\npulled %o removed %r dropped %d\""
par UseCase.upf.eth[0].queue packetCapacity 1000
par UseCase.upf.eth[0].queue dataCapacity -1b
attr unit b
par UseCase.upf.eth[0].queue dropperClass "\"inet::queueing::PacketAtCollectionEndDropper\""
par UseCase.upf.eth[0].queue comparatorClass "\"inet::EthernetFrameTypeComparator\""
par UseCase.upf.eth[0].queue bufferModule "\"\""
scalar UseCase.upf.eth[0].queue queueLength:last 0
attr autoWarmupFilter false
attr interpolationmode sample-hold
attr recordingmode last
attr source "warmup(atomic(constant0(packetPushEnded) + count(packetPushStarted) - count(packetPulled) - count(packetRemoved) - count(packetDropped)))"
attr title "queue length, last"
attr unit pk
scalar UseCase.upf.eth[0].queue queueLength:max 0
attr autoWarmupFilter false
attr interpolationmode sample-hold
attr recordingmode max
attr source "warmup(atomic(constant0(packetPushEnded) + count(packetPushStarted) - count(packetPulled) - count(packetRemoved) - count(packetDropped)))"
attr title "queue length, max"
attr unit pk
scalar UseCase.upf.eth[0].queue queueLength:timeavg 0
attr autoWarmupFilter false
attr interpolationmode sample-hold
attr recordingmode timeavg
attr source "warmup(atomic(constant0(packetPushEnded) + count(packetPushStarted) - count(packetPulled) - count(packetRemoved) - count(packetDropped)))"
attr title "queue length, timeavg"
attr unit pk
scalar UseCase.upf.eth[0].queue queueBitLength:last 0
attr autoWarmupFilter false
attr interpolationmode sample-hold
attr recordingmode last
attr source "warmup(atomic(constant0(packetPushEnded) + sum(packetLength(packetPushStarted)) - sum(packetLength(packetPulled)) - sum(packetLength(packetRemoved)) - sum(packetLength(packetDropped))))"
attr title "queue bit length, last"
attr unit b
scalar UseCase.upf.eth[0].queue queueBitLength:max 0
attr autoWarmupFilter false
attr interpolationmode sample-hold
attr recordingmode max
attr source "warmup(atomic(constant0(packetPushEnded) + sum(packetLength(packetPushStarted)) - sum(packetLength(packetPulled)) - sum(packetLength(packetRemoved)) - sum(packetLength(packetDropped))))"
attr title "queue bit length, max"
attr unit b
scalar UseCase.upf.eth[0].queue queueBitLength:timeavg 0
attr autoWarmupFilter false
attr interpolationmode sample-hold
attr recordingmode timeavg
attr source "warmup(atomic(constant0(packetPushEnded) + sum(packetLength(packetPushStarted)) - sum(packetLength(packetPulled)) - sum(packetLength(packetRemoved)) - sum(packetLength(packetDropped))))"
attr title "queue bit length, timeavg"
attr unit b
statistic UseCase.upf.eth[0].queue queueingTime:histogram
field count 201
field mean 0
field stddev 0
field min 0
field max 0
field sum 0
field sqrsum 0
attr interpolationmode none
attr recordingmode histogram
attr source queueingTime(packetPulled)
attr title "queueing times"
attr unit s
bin	-inf	0
bin	-0.5	0
bin	-0.48	0
bin	-0.46	0
bin	-0.44	0
bin	-0.42	0
bin	-0.4	0
bin	-0.38	0
bin	-0.36	0
bin	-0.34	0
bin	-0.32	0
bin	-0.3	0
bin	-0.28	0
bin	-0.26	0
bin	-0.24	0
bin	-0.22	0
bin	-0.2	0
bin	-0.18	0
bin	-0.16	0
bin	-0.14	0
bin	-0.12	0
bin	-0.1	0
bin	-0.08	0
bin	-0.06	0
bin	-0.04	0
bin	-0.02	0
bin	0	201
bin	0.02	0
bin	0.04	0
bin	0.06	0
bin	0.08	0
bin	0.1	0
bin	0.12	0
bin	0.14	0
bin	0.16	0
bin	0.18	0
bin	0.2	0
bin	0.22	0
bin	0.24	0
bin	0.26	0
bin	0.28	0
bin	0.3	0
bin	0.32	0
bin	0.34	0
bin	0.36	0
bin	0.38	0
bin	0.4	0
bin	0.42	0
bin	0.44	0
bin	0.46	0
bin	0.48	0
bin	0.5	0
scalar UseCase.upf.eth[0].queue outgoingPackets:count 201
attr recordingmode count
attr source packetPulled
attr title "outgoing packets, count"
attr unit pk
scalar UseCase.upf.eth[0].queue outgoingPacketLengths:sum 218688
attr interpolationmode none
attr recordingmode sum
attr source packetLength(packetPulled)
attr title "outgoing packet lengths, sum"
attr unit b
statistic UseCase.upf.eth[0].queue outgoingPacketLengths:histogram
field count 201
field mean 1088
field stddev 0
field min 1088
field max 1088
field sum 218688
field sqrsum 237932544
attr interpolationmode none
attr recordingmode histogram
attr source packetLength(packetPulled)
attr title "outgoing packet lengths"
attr unit b
bin	-inf	0
bin	1087	0
bin	1088	201
bin	1089	0
statistic UseCase.upf.eth[0].queue flowQueueingTime:histogram
field count 0
field mean -nan
field stddev nan
field min nan
field max nan
field sum 0
field sqrsum 0
attr interpolationmode none
attr recordingmode histogram
attr source queueingTime(demuxFlow(packetPulled))
attr title "flow queueing times"
attr unit s
bin	-inf	0
bin	0	0
bin	1	0
scalar UseCase.upf.eth[0].queue incomingPackets:count 201
attr recordingmode count
attr source packetPushStarted
attr title "incoming packets, count"
attr unit pk
scalar UseCase.upf.eth[0].queue incomingPacketLengths:sum 218688
attr interpolationmode none
attr recordingmode sum
attr source packetLength(packetPushStarted)
attr title "incoming packet lengths, sum"
attr unit b
statistic UseCase.upf.eth[0].queue incomingPacketLengths:histogram
field count 201
field mean 1088
field stddev 0
field min 1088
field max 1088
field sum 218688
field sqrsum 237932544
attr interpolationmode none
attr recordingmode histogram
attr source packetLength(packetPushStarted)
attr title "incoming packet lengths"
attr unit b
bin	-inf	0
bin	1087	0
bin	1088	201
bin	1089	0
scalar UseCase.upf.eth[0].queue droppedPacketsQueueOverflow:count 0
attr interpolationmode none
attr recordingmode count
attr source packetDropReasonIsQueueOverflow(packetDropped)
attr title "dropped packets: queue overflow, count"
attr unit pk
scalar UseCase.upf.eth[0].queue droppedPacketLengthsQueueOverflow:sum 0
attr interpolationmode none
attr recordingmode sum
attr source packetLength(packetDropReasonIsQueueOverflow(packetDropped))
attr title "dropped packet lengths: queue overflow, sum"
attr unit b
par UseCase.upf.eth[0].mac typename "\"inet.linklayer.ethernet.basic.EthernetMac\""
par UseCase.upf.eth[0].mac interfaceTableModule "\"UseCase.upf.interfaceTable\""
par UseCase.upf.eth[0].mac displayStringTextFormat "\"rate: %b\\nsent: %s, rcvd: %r\\nqueue: %q, drop: %d\""
par UseCase.upf.eth[0].mac sendRawBytes false
par UseCase.upf.eth[0].mac promiscuous false
par UseCase.upf.eth[0].mac duplexMode true
par UseCase.upf.eth[0].mac mtu 1500B
attr unit B
par UseCase.upf.eth[0].mac fcsMode "\"declared\""
attr enum declared,computed
par UseCase.upf.eth[0].mac stopOperationExtraTime -1s
attr unit s
par UseCase.upf.eth[0].mac stopOperationTimeout 2s
attr unit s
scalar UseCase.upf.eth[0].mac "simulated time" 200
scalar UseCase.upf.eth[0].mac full-duplex 1
scalar UseCase.upf.eth[0].mac "frames/sec sent" 1.005
scalar UseCase.upf.eth[0].mac "frames/sec rcvd" 17.99
scalar UseCase.upf.eth[0].mac "bits/sec sent" 1093.44
scalar UseCase.upf.eth[0].mac "bits/sec rcvd" 20340.64
scalar UseCase.upf.eth[0].mac "rx channel idle (%)" 99.9978508
scalar UseCase.upf.eth[0].mac "rx channel utilization (%)" 0.0021492
scalar UseCase.upf.eth[0].mac rxPausePkUnits:count 0
attr interpolationmode none
attr recordingmode count
attr title "pause units received, count"
scalar UseCase.upf.eth[0].mac rxPausePkUnits:sum 0
attr interpolationmode none
attr recordingmode sum
attr title "pause units received, sum"
scalar UseCase.upf.eth[0].mac txPausePkUnits:count 0
attr interpolationmode none
attr recordingmode count
attr title "pause units sent, count"
scalar UseCase.upf.eth[0].mac txPausePkUnits:sum 0
attr interpolationmode none
attr recordingmode sum
attr title "pause units sent, sum"
scalar UseCase.upf.eth[0].mac rxPkOk:count 3598
attr interpolationmode none
attr recordingmode count
attr source rxPkOk
attr title "packets received OK, count"
scalar UseCase.upf.eth[0].mac rxPkOk:sum(packetBytes) 508516
attr interpolationmode none
attr recordingmode sum(packetBytes)
attr source rxPkOk
attr title "packets received OK, sum(packetBytes)"
statistic UseCase.upf.eth[0].mac throughput:histogram
field count 1012
field mean 1148.59626208
field stddev 3455.2310827406
field min -1140.5827750819
field max 11520
field sum 1162379.4172249
field sqrsum 13405051329.067
attr interpolationmode linear
attr recordingmode histogram
attr source throughput(transmissionEnded)
attr title throughput
attr unit bps
bin	-inf	0
bin	-4400	0
bin	-4200	0
bin	-4000	0
bin	-3800	0
bin	-3600	0
bin	-3400	0
bin	-3200	0
bin	-3000	0
bin	-2800	0
bin	-2600	0
bin	-2400	0
bin	-2200	0
bin	-2000	0
bin	-1800	0
bin	-1600	0
bin	-1400	0
bin	-1200	1
bin	-1000	0
bin	-800	0
bin	-600	0
bin	-400	0
bin	-200	0
bin	0	910
bin	200	0
bin	400	0
bin	600	0
bin	800	0
bin	1000	0
bin	1200	0
bin	1400	0
bin	1600	0
bin	1800	0
bin	2000	0
bin	2200	0
bin	2400	0
bin	2600	0
bin	2800	0
bin	3000	0
bin	3200	0
bin	3400	0
bin	3600	0
bin	3800	0
bin	4000	0
bin	4200	0
bin	4400	0
bin	4600	0
bin	4800	0
bin	5000	0
bin	5200	0
bin	5400	0
bin	5600	0
bin	5800	0
bin	6000	0
bin	6200	0
bin	6400	0
bin	6600	0
bin	6800	0
bin	7000	0
bin	7200	0
bin	7400	0
bin	7600	0
bin	7800	0
bin	8000	0
bin	8200	0
bin	8400	0
bin	8600	0
bin	8800	0
bin	9000	0
bin	9200	0
bin	9400	0
bin	9600	0
bin	9800	0
bin	10000	0
bin	10200	0
bin	10400	0
bin	10600	0
bin	10800	0
bin	11000	0
bin	11200	0
bin	11400	101
bin	11600	0
bin	11800	0
bin	12000	0
bin	12200	0
bin	12400	0
bin	12600	0
bin	12800	0
bin	13000	0
bin	13200	0
bin	13400	0
bin	13600	0
bin	13800	0
bin	14000	0
bin	14200	0
bin	14400	0
bin	14600	0
bin	14800	0
statistic UseCase.upf.eth[0].mac utilization:histogram
field count 1022
field mean 0.00011497455968689
field stddev 0.00034546826564056
field min 0
field max 0.001152
field sum 0.117504
field sqrsum 0.000135364608
attr interpolationmode linear
attr recordingmode histogram
attr source "100 * utilization(count(transmissionStarted) - count(transmissionEnded))"
attr title utilization
attr unit %
bin	-inf	0
bin	0	920
bin	2e-05	0
bin	4e-05	0
bin	6e-05	0
bin	8e-05	0
bin	0.0001	0
bin	0.00012	0
bin	0.00014	0
bin	0.00016	0
bin	0.00018	0
bin	0.0002	0
bin	0.00022	0
bin	0.00024	0
bin	0.00026	0
bin	0.00028	0
bin	0.0003	0
bin	0.00032	0
bin	0.00034	0
bin	0.00036	0
bin	0.00038	0
bin	0.0004	0
bin	0.00042	0
bin	0.00044	0
bin	0.00046	0
bin	0.00048	0
bin	0.0005	0
bin	0.00052	0
bin	0.00054	0
bin	0.00056	0
bin	0.00058	0
bin	0.0006	0
bin	0.00062	0
bin	0.00064	0
bin	0.00066	0
bin	0.00068	0
bin	0.0007	0
bin	0.00072	0
bin	0.00074	0
bin	0.00076	0
bin	0.00078	0
bin	0.0008	0
bin	0.00082	0
bin	0.00084	0
bin	0.00086	0
bin	0.00088	0
bin	0.0009	0
bin	0.00092	0
bin	0.00094	0
bin	0.00096	0
bin	0.00098	0
bin	0.001	0
bin	0.00102	0
bin	0.00104	0
bin	0.00106	0
bin	0.00108	0
bin	0.0011	0
bin	0.00112	0
bin	0.00114	102
bin	0.00116	0
bin	0.00118	0
bin	0.0012	0
bin	0.00122	0
bin	0.00124	0
bin	0.00126	0
bin	0.00128	0
bin	0.0013	0
bin	0.00132	0
bin	0.00134	0
bin	0.00136	0
bin	0.00138	0
bin	0.0014	0
bin	0.00142	0
bin	0.00144	0
scalar UseCase.upf.eth[0].mac txPk:count 201
attr interpolationmode none
attr recordingmode count
attr source packetSentToLower
attr title "packets transmitted, count"
scalar UseCase.upf.eth[0].mac txPk:sum(packetBytes) 27336
attr interpolationmode none
attr recordingmode sum(packetBytes)
attr source packetSentToLower
[...]
field count 0
field mean -nan
field stddev nan
field min nan
field max nan
field sum 0
field sqrsum 0
attr interpolationmode none
attr recordingmode histogram
attr source "packetLength(demuxFlow(merge(packetPushedIn, packetPulledIn)))"
attr title "flow specific incoming packet lengths"
attr unit b
bin	-inf	0
bin	0	0
bin	1	0
par UseCase.Sensor.eth[0].phyLayer.receiver typename "\"inet.protocolelement.transceiver.PacketReceiver\""
par UseCase.Sensor.eth[0].phyLayer.receiver displayStringTextFormat "\"processed %p pk (%l)\""
par UseCase.Sensor.eth[0].phyLayer.receiver datarate 1e+09bps
attr unit bps
statistic UseCase.Sensor.eth[0].phyLayer.receiver throughput:histogram
field count 1947
field mean 12406.351111707
field stddev 7284.4361749961
field min -354.38550670456
field max 26720
field sum 24155165.614493
field sqrsum 402938083989.09
attr interpolationmode linear
attr recordingmode histogram
attr source throughput(receptionEnded)
attr title throughput
attr unit bps
bin	-inf	0
bin	-7500	0
bin	-7000	0
bin	-6500	0
bin	-6000	0
bin	-5500	0
bin	-5000	0
bin	-4500	0
bin	-4000	0
bin	-3500	0
bin	-3000	0
bin	-2500	0
bin	-2000	0
bin	-1500	0
bin	-1000	0
bin	-500	1
bin	0	390
bin	500	0
bin	1000	0
bin	1500	0
bin	2000	0
bin	2500	0
bin	3000	0
bin	3500	0
bin	4000	0
bin	4500	0
bin	5000	0
bin	5500	0
bin	6000	0
bin	6500	0
bin	7000	0
bin	7500	0
bin	8000	0
bin	8500	0
bin	9000	0
bin	9500	0
bin	10000	0
bin	10500	0
bin	11000	0
bin	11500	0
bin	12000	0
bin	12500	0
bin	13000	0
bin	13500	1361
bin	14000	0
bin	14500	0
bin	15000	0
bin	15500	0
bin	16000	0
bin	16500	0
bin	17000	0
bin	17500	0
bin	18000	0
bin	18500	0
bin	19000	0
bin	19500	0
bin	20000	0
bin	20500	0
bin	21000	0
bin	21500	0
bin	22000	0
bin	22500	0
bin	23000	0
bin	23500	0
bin	24000	0
bin	24500	0
bin	25000	0
bin	25500	0
bin	26000	0
bin	26500	195
bin	27000	0
bin	27500	0
bin	28000	0
bin	28500	0
bin	29000	0
bin	29500	0
bin	30000	0
bin	30500	0
bin	31000	0
bin	31500	0
bin	32000	0
bin	32500	0
bin	33000	0
bin	33500	0
statistic UseCase.Sensor.eth[0].phyLayer.receiver receptionTime:histogram
field count 3602
field mean 6.8975013881175e-07
field stddev 1.1448783009293e-07
field min 5.76e-07
field max 8.16e-07
field sum 0.0024844799999999
field sqrsum 1.7608704e-09
attr interpolationmode none
attr recordingmode histogram
attr source packetDuration(receptionEnded)
attr title "reception time"
attr unit s
bin	-inf	0
bin	5.15e-07	0
bin	5.2e-07	0
bin	5.25e-07	0
bin	5.3e-07	0
bin	5.35e-07	0
bin	5.4e-07	0
bin	5.45e-07	0
bin	5.5e-07	0
bin	5.55e-07	0
bin	5.6e-07	0
bin	5.65e-07	0
bin	5.7e-07	0
bin	5.75e-07	1600
bin	5.8e-07	0
bin	5.85e-07	0
bin	5.9e-07	0
bin	5.95e-07	0
bin	6e-07	0
bin	6.05e-07	0
bin	6.1e-07	0
bin	6.15e-07	0
bin	6.2e-07	0
bin	6.25e-07	0
bin	6.3e-07	0
bin	6.35e-07	402
bin	6.4e-07	0
bin	6.45e-07	0
bin	6.5e-07	0
bin	6.55e-07	0
bin	6.6e-07	0
bin	6.65e-07	0
bin	6.7e-07	0
bin	6.75e-07	0
bin	6.8e-07	0
bin	6.85e-07	0
bin	6.9e-07	0
bin	6.95e-07	0
bin	7e-07	0
bin	7.05e-07	0
bin	7.1e-07	0
bin	7.15e-07	0
bin	7.2e-07	0
bin	7.25e-07	0
bin	7.3e-07	0
bin	7.35e-07	0
bin	7.4e-07	0
bin	7.45e-07	0
bin	7.5e-07	0
bin	7.55e-07	0
bin	7.6e-07	0
bin	7.65e-07	0
bin	7.7e-07	0
bin	7.75e-07	0
bin	7.8e-07	0
bin	7.85e-07	0
bin	7.9e-07	0
bin	7.95e-07	0
bin	8e-07	0
bin	8.05e-07	0
bin	8.1e-07	0
bin	8.15e-07	1600
bin	8.2e-07	0
bin	8.25e-07	0
bin	8.3e-07	0
bin	8.35e-07	0
bin	8.4e-07	0
bin	8.45e-07	0
bin	8.5e-07	0
bin	8.55e-07	0
bin	8.6e-07	0
bin	8.65e-07	0
bin	8.7e-07	0
bin	8.75e-07	0
bin	8.8e-07	0
statistic UseCase.Sensor.eth[0].phyLayer.receiver flowReceptionTime:histogram
field count 0
field mean -nan
field stddev nan
field min nan
field max nan
field sum 0
field sqrsum 0
attr interpolationmode none
attr recordingmode histogram
attr source packetDuration(demuxFlow(receptionEnded))
attr title "flow reception time"
attr unit s
bin	-inf	0
bin	0	0
bin	1	0
par UseCase.Sensor.eth[0].phyLayer typename "\"inet.physicallayer.wired.ethernet.EthernetPhyLayer\""
par UseCase.Sensor.eth[0].phyLayer bitrate this.bitrate
attr unit bps
par UseCase.Sensor.eth[0] typename "\"inet.linklayer.ethernet.modular.LayeredEthernetInterface\""
par UseCase.Sensor.eth[0] displayStringTextFormat "\"%a (%i)\\n%m\""
par UseCase.Sensor.eth[0] recordPcap false
par UseCase.Sensor.eth[0] numPcapRecorders 0
par UseCase.Sensor.eth[0] protocol "\"ethernetmac\""
par UseCase.Sensor.eth[0] broadcast true
par UseCase.Sensor.eth[0] multicast true
par UseCase.Sensor.eth[0] address "\"0A-AA-00-00-00-12\""
attr mutable ""
par UseCase.Sensor.eth[0] bitrate 1e+09bps
attr unit bps
par UseCase.Sensor.eth[0] mtu 1500B
attr unit B
par UseCase.Sensor.eth[0] interfaceTableModule "\"UseCase.Sensor.interfaceTable\""
scalar UseCase.Sensor.eth[0] packetDropInterfaceDown:count 0
attr interpolationmode none
attr recordingmode count
attr source packetDropReasonIsInterfaceDown(packetDropped)
attr title "packet drops: interface down, count"
scalar UseCase.Sensor.eth[0] packetDropInterfaceDown:sum(packetBytes) 0
attr interpolationmode none
attr recordingmode sum(packetBytes)
attr source packetDropReasonIsInterfaceDown(packetDropped)
attr title "packet drops: interface down, sum(packetBytes)"
scalar UseCase.Sensor.eth[0] packetDropNoCarrier:count 0
attr interpolationmode none
attr recordingmode count
attr source packetDropReasonIsNoCarrier(packetDropped)
attr title "packet drops: no carrier, count"
scalar UseCase.Sensor.eth[0] packetDropNoCarrier:sum(packetBytes) 0
attr interpolationmode none
attr recordingmode sum(packetBytes)
attr source packetDropReasonIsNoCarrier(packetDropped)
attr title "packet drops: no carrier, sum(packetBytes)"
par UseCase.Sensor.ipv4.transportIn.channel typename "\"ned.IdealChannel\""
par UseCase.Sensor.ipv4.up.out[0].channel typename "\"ned.IdealChannel\""
par UseCase.Sensor.ipv4.lp.out[2].channel typename "\"ned.IdealChannel\""
par UseCase.Sensor.ipv4.ifIn.channel typename "\"ned.IdealChannel\""
par UseCase.Sensor.ipv4.configurator typename "\"inet.networklayer.configurator.ipv4.Ipv4NodeConfigurator\""
par UseCase.Sensor.ipv4.configurator interfaceTableModule "\"UseCase.Sensor.interfaceTable\""
par UseCase.Sensor.ipv4.configurator routingTableModule "\"UseCase.Sensor.ipv4.routingTable\""
par UseCase.Sensor.ipv4.configurator networkConfiguratorModule "\"configurator\""
par UseCase.Sensor.ipv4.configurator configureRoutingTable true
par UseCase.Sensor.ipv4.routingTable typename "\"inet.networklayer.ipv4.Ipv4RoutingTable\""
par UseCase.Sensor.ipv4.routingTable interfaceTableModule "\"UseCase.Sensor.interfaceTable\""
par UseCase.Sensor.ipv4.routingTable routerId "\"auto\""
par UseCase.Sensor.ipv4.routingTable netmaskRoutes "\"*\""
par UseCase.Sensor.ipv4.routingTable forwarding false
par UseCase.Sensor.ipv4.routingTable multicastForwarding false
par UseCase.Sensor.ipv4.routingTable useAdminDist false
par UseCase.Sensor.ipv4.routingTable routingFile "\"\""
par UseCase.Sensor.ipv4.natTable typename "\"inet.networklayer.ipv4.Ipv4NatTable\""
par UseCase.Sensor.ipv4.natTable networkProtocolModule "\"^.ip\""
par UseCase.Sensor.ipv4.natTable config "<config/> at content:1"
par UseCase.Sensor.ipv4.up typename "\"inet.common.MessageDispatcher\""
par UseCase.Sensor.ipv4.up displayStringTextFormat "\"processed %p pk (%l)\""
par UseCase.Sensor.ipv4.up forwardServiceRegistration true
par UseCase.Sensor.ipv4.up forwardProtocolRegistration true
par UseCase.Sensor.ipv4.igmp typename "\"inet.networklayer.ipv4.Igmpv2\""
par UseCase.Sensor.ipv4.igmp interfaceTableModule "\"UseCase.Sensor.interfaceTable\""
par UseCase.Sensor.ipv4.igmp routingTableModule "\"UseCase.Sensor.ipv4.routingTable\""
par UseCase.Sensor.ipv4.igmp crcMode "\"declared\""
attr enum declared,computed
par UseCase.Sensor.ipv4.igmp enabled true
par UseCase.Sensor.ipv4.igmp robustnessVariable 2
par UseCase.Sensor.ipv4.igmp queryInterval 125s
attr unit s
par UseCase.Sensor.ipv4.igmp queryResponseInterval 10s
attr unit s
par UseCase.Sensor.ipv4.igmp groupMembershipInterval 260s
attr unit s
par UseCase.Sensor.ipv4.igmp otherQuerierPresentInterval 255s
attr unit s
par UseCase.Sensor.ipv4.igmp startupQueryInterval 31.25s
attr unit s
par UseCase.Sensor.ipv4.igmp startupQueryCount 2
par UseCase.Sensor.ipv4.igmp lastMemberQueryInterval 1s
attr unit s
par UseCase.Sensor.ipv4.igmp lastMemberQueryCount 2
par UseCase.Sensor.ipv4.igmp unsolicitedReportInterval 10s
attr unit s
par UseCase.Sensor.ipv4.icmp typename "\"inet.networklayer.ipv4.Icmp\""
par UseCase.Sensor.ipv4.icmp interfaceTableModule "\"UseCase.Sensor.interfaceTable\""
par UseCase.Sensor.ipv4.icmp routingTableModule "\"UseCase.Sensor.ipv4.routingTable\""
par UseCase.Sensor.ipv4.icmp crcMode "\"declared\""
attr enum declared,computed
attr mutable ""
par UseCase.Sensor.ipv4.icmp quoteLength 8B
attr mutable ""
attr unit B
par UseCase.Sensor.ipv4.mp typename "\"inet.common.MessageDispatcher\""
par UseCase.Sensor.ipv4.mp displayStringTextFormat "\"processed %p pk (%l)\""
par UseCase.Sensor.ipv4.mp forwardServiceRegistration true
par UseCase.Sensor.ipv4.mp forwardProtocolRegistration true
par UseCase.Sensor.ipv4.ip typename "\"inet.networklayer.ipv4.Ipv4\""
par UseCase.Sensor.ipv4.ip interfaceTableModule "\"UseCase.Sensor.interfaceTable\""
par UseCase.Sensor.ipv4.ip routingTableModule "\"UseCase.Sensor.ipv4.routingTable\""
par UseCase.Sensor.ipv4.ip arpModule "\"UseCase.Sensor.ipv4.arp\""
par UseCase.Sensor.ipv4.ip icmpModule "\"UseCase.Sensor.ipv4.icmp\""
par UseCase.Sensor.ipv4.ip crcMode "\"declared\""
attr enum declared,computed
par UseCase.Sensor.ipv4.ip timeToLive 32
par UseCase.Sensor.ipv4.ip multicastTimeToLive 32
par UseCase.Sensor.ipv4.ip fragmentTimeout 60s
attr unit s
par UseCase.Sensor.ipv4.ip limitedBroadcast false
par UseCase.Sensor.ipv4.ip directBroadcastInterfaces "\"\""
par UseCase.Sensor.ipv4.ip enableLocalOutMulticastRouting false
par UseCase.Sensor.ipv4.ip enableTimestampOption false
par UseCase.Sensor.ipv4.ip maxLifetime -1s
attr unit s
scalar UseCase.Sensor.ipv4.ip packetDropAddressResolutionFailed:count 0
attr interpolationmode none
attr recordingmode count
attr source packetDropReasonIsAddressResolutionFailed(packetDropped)
attr title "packet drop: address resolution failed, count"
scalar UseCase.Sensor.ipv4.ip packetDropAddressResolutionFailed:sum(packetBytes) 0
attr interpolationmode none
attr recordingmode sum(packetBytes)
attr source packetDropReasonIsAddressResolutionFailed(packetDropped)
attr title "packet drop: address resolution failed, sum(packetBytes)"
scalar UseCase.Sensor.ipv4.ip packetDropHopLimitReached:count 0
attr interpolationmode none
attr recordingmode count
attr source packetDropReasonIsHopLimitReached(packetDropped)
attr title "packet drop: hop limit reached, count"
scalar UseCase.Sensor.ipv4.ip packetDropHopLimitReached:sum(packetBytes) 0
attr interpolationmode none
attr recordingmode sum(packetBytes)
attr source packetDropReasonIsHopLimitReached(packetDropped)
attr title "packet drop: hop limit reached, sum(packetBytes)"
scalar UseCase.Sensor.ipv4.ip packetDropForwardingDisabled:count 0
attr interpolationmode none
attr recordingmode count
attr source packetDropReasonIsForwardingDisabled(packetDropped)
attr title "packet drop: forwarding disabled, count"
scalar UseCase.Sensor.ipv4.ip packetDropForwardingDisabled:sum(packetBytes) 0
attr interpolationmode none
attr recordingmode sum(packetBytes)
attr source packetDropReasonIsForwardingDisabled(packetDropped)
attr title "packet drop: forwarding disabled, sum(packetBytes)"
scalar UseCase.Sensor.ipv4.ip packetDropLifetimeExpired:count 0
attr interpolationmode none
attr recordingmode count
attr source packetDropReasonIsLifetimeExpired(packetDropped)
attr title "packet drop: lifetime expired, count"
scalar UseCase.Sensor.ipv4.ip packetDropLifetimeExpired:sum(packetBytes) 0
attr interpolationmode none
attr recordingmode sum(packetBytes)
attr source packetDropReasonIsLifetimeExpired(packetDropped)
attr title "packet drop: lifetime expired, sum(packetBytes)"
scalar UseCase.Sensor.ipv4.ip packetDropNoInterfaceFound:count 0
attr interpolationmode none
attr recordingmode count
attr source packetDropReasonIsNoInterfaceFound(packetDropped)
attr title "packet drop: no interface found, count"
scalar UseCase.Sensor.ipv4.ip packetDropNoInterfaceFound:sum(packetBytes) 0
attr interpolationmode none
attr recordingmode sum(packetBytes)
attr source packetDropReasonIsNoInterfaceFound(packetDropped)
attr title "packet drop: no interface found, sum(packetBytes)"
scalar UseCase.Sensor.ipv4.ip packetDropNoRouteFound:count 0
attr interpolationmode none
attr recordingmode count
attr source packetDropReasonIsNoRouteFound(packetDropped)
attr title "packet drop: no route found, count"
scalar UseCase.Sensor.ipv4.ip packetDropNoRouteFound:sum(packetBytes) 0
attr interpolationmode none
attr recordingmode sum(packetBytes)
attr source packetDropReasonIsNoRouteFound(packetDropped)
attr title "packet drop: no route found, sum(packetBytes)"
scalar UseCase.Sensor.ipv4.ip packetDropUndefined:count 0
attr interpolationmode none
attr recordingmode count
attr source packetDropReasonIsUndefined(packetDropped)
attr title "packet drop: undefined, count"
scalar UseCase.Sensor.ipv4.ip packetDropUndefined:sum(packetBytes) 0
attr interpolationmode none
attr recordingmode sum(packetBytes)
attr source packetDropReasonIsUndefined(packetDropped)
attr title "packet drop: undefined, sum(packetBytes)"
par UseCase.Sensor.ipv4.arp typename "\"inet.networklayer.arp.ipv4.GlobalArp\""
par UseCase.Sensor.ipv4.arp interfaceTableModule "\"UseCase.Sensor.interfaceTable\""
par UseCase.Sensor.ipv4.arp addressType "\"ipv4\""
attr enum ipv4,ipv6,mac,moduleid,modulepath
par UseCase.Sensor.ipv4.lp typename "\"inet.common.MessageDispatcher\""
par UseCase.Sensor.ipv4.lp displayStringTextFormat "\"processed %p pk (%l)\""
par UseCase.Sensor.ipv4.lp forwardServiceRegistration true
par UseCase.Sensor.ipv4.lp forwardProtocolRegistration true
par UseCase.Sensor.ipv4 typename "\"inet.networklayer.ipv4.Ipv4NetworkLayer\""
par UseCase.Sensor.ipv4 forwarding false
par UseCase.Sensor.ipv4 multicastForwarding false
par UseCase.Sensor.ipv4 hasIpsec false
par UseCase.Sensor.ipv4 interfaceTableModule "\"UseCase.Sensor.interfaceTable\""
par UseCase.Sensor.ipv4 displayStringTextFormat "\"%i\""
par UseCase.Sensor.nl typename "\"inet.common.MessageDispatcher\""
par UseCase.Sensor.nl displayStringTextFormat "\"processed %p pk (%l)\""
par UseCase.Sensor.nl forwardServiceRegistration true
par UseCase.Sensor.nl forwardProtocolRegistration true
par UseCase.Sensor.udp typename "\"inet.transportlayer.udp.Udp\""
par UseCase.Sensor.udp interfaceTableModule "\"UseCase.Sensor.interfaceTable\""
par UseCase.Sensor.udp icmpModule "\"^.ipv4.icmp\""
par UseCase.Sensor.udp icmpv6Module "\"^.ipv6.icmpv6\""
par UseCase.Sensor.udp crcMode "\"declared\""
attr enum disabled,declared,computed
par UseCase.Sensor.udp defaultMulticastLoop true
scalar UseCase.Sensor.udp packetReceived:count 0
attr interpolationmode none
attr recordingmode count
attr source packetReceived
attr title "packets received, count"
scalar UseCase.Sensor.udp packetReceived:sum(packetBytes) 0
attr interpolationmode none
attr recordingmode sum(packetBytes)
attr source packetReceived
attr title "packets received, sum(packetBytes)"
scalar UseCase.Sensor.udp packetSent:count 0
attr interpolationmode none
attr recordingmode count
attr source packetSent
attr title "packets sent, count"
scalar UseCase.Sensor.udp packetSent:sum(packetBytes) 0
attr interpolationmode none
attr recordingmode sum(packetBytes)
attr source packetSent
attr title "packets sent, sum(packetBytes)"
scalar UseCase.Sensor.udp passedUpPk:count 0
attr interpolationmode none
attr recordingmode count
attr source packetSentToUpper
attr title "packets passed up, count"
scalar UseCase.Sensor.udp droppedPkWrongPort:count 0
attr interpolationmode none
attr recordingmode count
attr source packetDropReasonIsNoPortFound(packetDropped)
attr title "packets dropped (wrong port), count"
scalar UseCase.Sensor.udp droppedPkBadChecksum:count 0
attr interpolationmode none
attr recordingmode count
attr source packetDropReasonIsIncorrectlyReceived(packetDropped)
attr title "packets dropped (checksum error), count"
par UseCase.Sensor.tcp typename "\"inet.transportlayer.tcp.Tcp\""
par UseCase.Sensor.tcp crcMode "\"declared\""
attr enum declared,computed
par UseCase.Sensor.tcp advertisedWindow 7504
par UseCase.Sensor.tcp delayedAcksEnabled false
par UseCase.Sensor.tcp nagleEnabled true
par UseCase.Sensor.tcp limitedTransmitEnabled false
par UseCase.Sensor.tcp increasedIWEnabled false
par UseCase.Sensor.tcp sackSupport false
par UseCase.Sensor.tcp windowScalingSupport false
par UseCase.Sensor.tcp windowScalingFactor -1
par UseCase.Sensor.tcp timestampSupport false
par UseCase.Sensor.tcp mss 536
par UseCase.Sensor.tcp msl 120s
attr unit s
par UseCase.Sensor.tcp tcpAlgorithmClass "\"TcpReno\""
attr enum TcpVegas,TcpWestwood,DcTcp,TcpNewReno,TcpReno,TcpTahoe,TcpNoCongestionControl
par UseCase.Sensor.tcp dupthresh 3
par UseCase.Sensor.tcp initialSsthresh 4294967295
par UseCase.Sensor.tcp stopOperationExtraTime 0s
attr unit s
par UseCase.Sensor.tcp stopOperationTimeout 2s
attr unit s
par UseCase.Sensor.tcp ecnWillingness false
par UseCase.Sensor.tcp dctcpGamma 0.0625
par UseCase.Sensor.tn typename "\"inet.common.MessageDispatcher\""
par UseCase.Sensor.tn displayStringTextFormat "\"processed %p pk (%l)\""
par UseCase.Sensor.tn forwardServiceRegistration true
par UseCase.Sensor.tn forwardProtocolRegistration true
par UseCase.Sensor.at typename "\"inet.common.MessageDispatcher\""
par UseCase.Sensor.at displayStringTextFormat "\"processed %p pk (%l)\""
par UseCase.Sensor.at forwardServiceRegistration true
par UseCase.Sensor.at forwardProtocolRegistration true
par UseCase.Sensor.gptp typename "\"inet.linklayer.ieee8021as.Gptp\""
par UseCase.Sensor.gptp clockModule "\"UseCase.Sensor.clock\""
par UseCase.Sensor.gptp interfaceTableModule "\"UseCase.Sensor.interfaceTable\""
par UseCase.Sensor.gptp gptpNodeType "\"SLAVE_NODE\""
par UseCase.Sensor.gptp domainNumber 0
par UseCase.Sensor.gptp slavePort "\"eth0\""
par UseCase.Sensor.gptp masterPorts []
par UseCase.Sensor.gptp correctionField 0s
attr unit s
par UseCase.Sensor.gptp syncInterval 0.125s
attr unit s
par UseCase.Sensor.gptp pdelayInterval 1s
attr unit s
par UseCase.Sensor.gptp syncInitialOffset 0.125s
attr unit s
par UseCase.Sensor.gptp pdelayInitialOffset 0s
attr unit s
par UseCase.Sensor.gptp pDelayReqProcessingTime 8e-06s
attr unit s
par UseCase.Sensor.gptp followUpInterval 7e-06s
attr unit s
par UseCase.Sensor typename "\"inet.node.tsn.TsnDevice\""
par UseCase.Sensor hasStatus false
par UseCase.Sensor osgModel "\"\""
par UseCase.Sensor osgModelColor "\"\""
par UseCase.Sensor canvasImage "\"\""
par UseCase.Sensor canvasImageColor "\"\""
par UseCase.Sensor recordPcap false
par UseCase.Sensor numPcapRecorders 0
par UseCase.Sensor numLoInterfaces 1
par UseCase.Sensor numWlanInterfaces 0
par UseCase.Sensor numEthInterfaces 0
par UseCase.Sensor numPppInterfaces 0
par UseCase.Sensor numTunInterfaces 0
par UseCase.Sensor numVirtInterfaces 0
par UseCase.Sensor fcsMode "\"declared\""
attr enum declared,computed
par UseCase.Sensor hasIpv4 true
par UseCase.Sensor hasIpv6 false
par UseCase.Sensor hasGn false
par UseCase.Sensor forwarding false
par UseCase.Sensor multicastForwarding false
par UseCase.Sensor hasUdp true
par UseCase.Sensor hasTcp true
par UseCase.Sensor hasSctp false
par UseCase.Sensor numApps 0
par UseCase.Sensor hasTimeSynchronization true
par UseCase.Sensor hasIngressTrafficFiltering false
par UseCase.Sensor hasEgressTrafficFiltering false
par UseCase.Sensor hasEgressTrafficShaping false
par UseCase.Sensor hasStreamRedundancy false
par UseCase.Sensor hasIncomingStreams false
par UseCase.Sensor hasOutgoingStreams false
par UseCase.Sensor hasFramePreemption false
par UseCase.Sensor hasCutthroughSwitching false
par UseCase typename "\"simulation.UseCase\""
par UseCase recordPcap false
par UseCase numPcapRecorders 0
par UseCase hasGlobalArp true

